lig19
                    3D
 Schrodinger Suite 2020-3.
 79 84  0  0  1  0            999 V2000
   -0.9131   45.8744  -24.8362 C   0  0  0  0  0  0
   -0.6550   47.3680  -24.5540 C   0  0  0  0  0  0
   -1.8140   48.1040  -23.8501 C   0  0  0  0  0  0
   -2.8885   47.5190  -23.6743 O   0  0  0  0  0  0
   -1.6105   49.3792  -23.4397 N   0  0  0  0  0  0
   -2.6916   50.2057  -22.8913 C   0  0  0  0  0  0
   -2.2982   51.6012  -23.3675 C   0  0  0  0  0  0
   -0.7660   51.5919  -23.3401 C   0  0  2  0  0  0
   -0.1231   52.6448  -24.2054 N   0  0  0  0  0  0
   -0.2605   52.5532  -25.5758 C   0  0  0  0  0  0
   -0.9267   51.6715  -26.1310 O   0  0  0  0  0  0
    0.4937   53.4492  -26.3048 N   0  0  0  0  0  0
    0.5725   53.3551  -27.7048 C   0  0  0  0  0  0
    1.8302   53.1979  -28.2957 C   0  0  0  0  0  0
    1.9251   53.0480  -29.6746 C   0  0  0  0  0  0
    0.7639   53.0539  -30.4453 C   0  0  0  0  0  0
    0.8609   52.7771  -32.1334 Cl  0  0  0  0  0  0
   -0.4859   53.2525  -29.8703 C   0  0  0  0  0  0
   -0.5840   53.4110  -28.4951 C   0  0  0  0  0  0
    0.9545   54.7444  -25.7559 C   0  0  0  0  0  0
    1.2647   54.6540  -24.2809 C   0  0  0  0  0  0
    2.0611   55.5652  -23.5815 C   0  0  0  0  0  0
    2.2770   55.4673  -22.2434 N   0  0  0  0  0  0
    1.6623   54.4417  -21.5974 C   0  0  0  0  0  0
    1.8659   54.3768  -20.2120 N   0  0  0  0  0  0
    1.3407   53.5619  -19.1877 C   0  0  0  0  0  0
    0.6443   52.3655  -19.4040 C   0  0  0  0  0  0
    0.1131   51.6462  -18.3341 C   0  0  0  0  0  0
    0.2603   52.0968  -17.0142 C   0  0  0  0  0  0
   -0.3542   51.4099  -15.9716 N   0  0  0  0  0  0
   -1.5842   51.9711  -15.3745 C   0  0  0  0  0  0
   -1.9503   51.3447  -14.0057 C   0  0  0  0  0  0
   -2.0694   49.8889  -14.1183 N   0  0  0  0  0  0
   -2.4362   49.3182  -12.8223 C   0  0  0  0  0  0
   -0.7830   49.3583  -14.5753 C   0  0  0  0  0  0
   -0.4342   49.9370  -15.9696 C   0  0  0  0  0  0
    0.9745   53.2929  -16.7898 C   0  0  0  0  0  0
    1.2021   53.8629  -15.3934 C   0  0  0  0  0  0
    1.5336   53.9810  -17.8721 C   0  0  0  0  0  0
    0.8780   53.5185  -22.2009 N   0  0  0  0  0  0
    0.6764   53.6227  -23.5428 C   0  0  0  0  0  0
   -0.3646   50.1315  -23.6527 C   0  0  0  0  0  0
   -0.5384   51.7036  -22.2824 H   0  0  0  0  0  0
   -0.0324   45.4170  -25.2887 H   0  0  0  0  0  0
   -1.1305   45.3161  -23.9255 H   0  0  0  0  0  0
   -1.7332   45.7338  -25.5391 H   0  0  0  0  0  0
   -0.4870   47.8720  -25.5020 H   0  0  0  0  0  0
    0.2600   47.4731  -23.9729 H   0  0  0  0  0  0
   -2.6549   50.1780  -21.8015 H   0  0  0  0  0  0
   -3.6812   49.9362  -23.2674 H   0  0  0  0  0  0
   -2.7284   52.4052  -22.7647 H   0  0  0  0  0  0
   -2.6917   51.7592  -24.3733 H   0  0  0  0  0  0
    2.7263   53.1628  -27.6934 H   0  0  0  0  0  0
    2.8890   52.9028  -30.1408 H   0  0  0  0  0  0
   -1.3732   53.2611  -30.4874 H   0  0  0  0  0  0
   -1.5577   53.5404  -28.0473 H   0  0  0  0  0  0
    1.7938   55.1428  -26.3298 H   0  0  0  0  0  0
    0.1434   55.4630  -25.8816 H   0  0  0  0  0  0
    2.5360   56.3878  -24.0981 H   0  0  0  0  0  0
    2.3545   55.1959  -19.8752 H   0  0  0  0  0  0
    0.4988   51.9552  -20.3871 H   0  0  0  0  0  0
   -0.4316   50.7348  -18.5430 H   0  0  0  0  0  0
   -1.5095   53.0532  -15.2652 H   0  0  0  0  0  0
   -2.4171   51.7808  -16.0548 H   0  0  0  0  0  0
   -1.2075   51.6227  -13.2562 H   0  0  0  0  0  0
   -2.9046   51.7570  -13.6620 H   0  0  0  0  0  0
   -2.5453   48.2327  -12.8935 H   0  0  0  0  0  0
   -1.6881   49.5392  -12.0589 H   0  0  0  0  0  0
   -3.3941   49.7197  -12.4852 H   0  0  0  0  0  0
   -0.8369   48.2690  -14.6392 H   0  0  0  0  0  0
    0.0130   49.5939  -13.8637 H   0  0  0  0  0  0
   -1.2112   49.6152  -16.6670 H   0  0  0  0  0  0
    0.5152   49.5175  -16.3077 H   0  0  0  0  0  0
    1.1987   53.0818  -14.6298 H   0  0  0  0  0  0
    2.1772   54.3533  -15.3262 H   0  0  0  0  0  0
    0.4420   54.6089  -15.1518 H   0  0  0  0  0  0
    2.0800   54.8953  -17.6829 H   0  0  0  0  0  0
   -0.0379   50.0281  -24.6893 H   0  0  0  0  0  0
    0.4344   49.8200  -22.9719 H   0  0  0  0  0  0
  1  2  1  0  0  0
  1 44  1  0  0  0
  1 45  1  0  0  0
  1 46  1  0  0  0
  2  3  1  0  0  0
  2 47  1  0  0  0
  2 48  1  0  0  0
  3  4  2  0  0  0
  3  5  1  0  0  0
  5 42  1  0  0  0
  5  6  1  0  0  0
  6  7  1  0  0  0
  6 49  1  0  0  0
  6 50  1  0  0  0
  7  8  1  0  0  0
  7 51  1  0  0  0
  7 52  1  0  0  0
  8 43  1  0  0  0
  8  9  1  0  0  0
  8 42  1  0  0  0
  9 41  1  0  0  0
  9 10  1  0  0  0
 10 11  2  0  0  0
 10 12  1  0  0  0
 12 13  1  0  0  0
 12 20  1  0  0  0
 13 19  1  0  0  0
 13 14  2  0  0  0
 14 15  1  0  0  0
 14 53  1  0  0  0
 15 16  2  0  0  0
 15 54  1  0  0  0
 16 17  1  0  0  0
 16 18  1  0  0  0
 18 19  2  0  0  0
 18 55  1  0  0  0
 19 56  1  0  0  0
 20 21  1  0  0  0
 20 57  1  0  0  0
 20 58  1  0  0  0
 21 41  2  0  0  0
 21 22  1  0  0  0
 22 23  2  0  0  0
 22 59  1  0  0  0
 23 24  1  0  0  0
 24 25  1  0  0  0
 24 40  2  0  0  0
 25 26  1  0  0  0
 25 60  1  0  0  0
 26 39  1  0  0  0
 26 27  2  0  0  0
 27 28  1  0  0  0
 27 61  1  0  0  0
 28 29  2  0  0  0
 28 62  1  0  0  0
 29 30  1  0  0  0
 29 37  1  0  0  0
 30 36  1  0  0  0
 30 31  1  0  0  0
 31 32  1  0  0  0
 31 63  1  0  0  0
 31 64  1  0  0  0
 32 33  1  0  0  0
 32 65  1  0  0  0
 32 66  1  0  0  0
 33 34  1  0  0  0
 33 35  1  0  0  0
 34 67  1  0  0  0
 34 68  1  0  0  0
 34 69  1  0  0  0
 35 36  1  0  0  0
 35 70  1  0  0  0
 35 71  1  0  0  0
 36 72  1  0  0  0
 36 73  1  0  0  0
 37 38  1  0  0  0
 37 39  2  0  0  0
 38 74  1  0  0  0
 38 75  1  0  0  0
 38 76  1  0  0  0
 39 77  1  0  0  0
 40 41  1  0  0  0
 42 78  1  0  0  0
 42 79  1  0  0  0
M  END
> <s_m_source_file>
/home/user-home/yujie/0_PBCNetv2/data/0_0_high_sim/0_noncov/Sries46644/ligprep_input.csv

> <i_m_source_file_index>
20

> <i_lp_mmshare_version>
51139

> <i_f3d_flags>
0

> <s_epik_input>
W2NIXTFbY0hdYyhDbClbY0hdW2NIXWMxTihbQ0gyXTIpQyg9TylOKFtDQEhdKFtDSDJdMylbQ0gyXVtDSDJdTjNDKD1PKVtDSDJdW0NIM10pYyhjMjQpbmMobltjSF00KVtOSF1jNVtjSF1bY0hdYyhjKFtDSDNdKVtjSF01KU42W0NIMl1bQ0gyXU4oW0NIM10pW0NIMl1bQ0gyXTY=

> <s_epik_cmdline>
J2VwaWtfcHl0aG9uJywgJy1waHQnLCAnMi4wJywgJy1waCcsICc3LjQnLCAnLXRuJywgJzgnLCAnLW1hJywgJzIwMCcsICctaW1hZScsICc8aW5maWxlLm1hZT4nLCAnLW9tYWUnLCAnPG91dGZpbGUubWFlPic=

> <r_lp_tautomer_probability>
1

> <r_epik_Ionization_Penalty>
  1.5720

> <r_epik_Ionization_Penalty_Charging>
  0.0000

> <r_epik_Ionization_Penalty_Neutral>
  1.5720

> <r_epik_State_Penalty>
  1.1563

> <r_epik_Charging_Adjusted_Penalty>
1.15633

> <i_epik_Tot_Q>
0

> <i_epik_Tot_abs_Q>
0

> <s_lp_Force_Field>
OPLS3e

> <r_lp_Energy>
104.682

> <b_lp_Chiralities_Consistent>
1

> <s_lp_Variant>
lig19-3

> <s_i_glide_gridfile>
Sries53139-001-gridgen

> <i_i_glide_lignum>
63

> <i_i_glide_rotatable_bonds>
7

> <r_i_docking_score>
-7.4949978869647

> <r_i_glide_ligand_efficiency>
-0.178452330642017

> <r_i_glide_ligand_efficiency_sa>
-0.620305055380905

> <r_i_glide_ligand_efficiency_ln>
-1.58200096056517

> <r_i_glide_gscore>
-8.6513278869647

> <r_i_glide_lipo>
-3.72681763467752

> <r_i_glide_hbond>
-0.306947725780787

> <r_i_glide_metal>
-0

> <r_i_glide_rewards>
-1.93766880507313

> <r_i_glide_evdw>
-50.5480003356934

> <r_i_glide_ecoul>
-2.19600796699524

> <r_i_glide_erotb>
0.178153613357542

> <r_i_glide_esite>
-0.00124612295685834

> <r_i_glide_emodel>
-75.4975806027424

> <r_i_glide_energy>
-52.7440083026886

> <r_i_glide_einternal>
8.90507888793945

> <i_i_glide_confnum>
71

> <i_i_glide_posenum>
320

> <r_i_glide_eff_state_penalty>
1.15633

$$$$
