lig24
                    3D
 Schrodinger Suite 2020-3.
 84 89  0  0  1  0            999 V2000
   -1.0410   45.8098  -25.0440 C   0  0  0  0  0  0
   -0.7573   47.2942  -24.7370 C   0  0  0  0  0  0
   -1.8234   47.9914  -23.8703 C   0  0  0  0  0  0
   -2.9523   47.5015  -23.8019 O   0  0  0  0  0  0
   -1.4894   49.1235  -23.2011 N   0  0  0  0  0  0
   -2.4709   49.9032  -22.4425 C   0  0  0  0  0  0
   -1.9820   51.3315  -22.6507 C   0  0  0  0  0  0
   -0.4622   51.2286  -22.7893 C   0  0  2  0  0  0
    0.1397   52.3355  -23.6143 N   0  0  0  0  0  0
   -0.0007   52.3007  -24.9884 C   0  0  0  0  0  0
   -0.7130   51.4756  -25.5723 O   0  0  0  0  0  0
    0.8108   53.1774  -25.6817 N   0  0  0  0  0  0
    0.9556   53.1260  -27.0806 C   0  0  0  0  0  0
    2.2360   53.0542  -27.6398 C   0  0  0  0  0  0
    2.4024   53.0758  -29.0129 C   0  0  0  0  0  0
    1.2943   53.1564  -29.8438 C   0  0  0  0  0  0
    1.5647   53.1559  -31.1885 O   0  0  0  0  0  0
    0.4610   53.1324  -32.0695 C   0  0  0  0  0  0
    0.0049   53.2251  -29.2912 C   0  0  0  0  0  0
   -0.1633   53.2197  -27.9141 C   0  0  0  0  0  0
    1.2616   54.4574  -25.1017 C   0  0  0  0  0  0
    1.4973   54.3582  -23.6198 C   0  0  0  0  0  0
    2.2923   55.2474  -22.9019 C   0  0  0  0  0  0
    2.4324   55.1768  -21.5569 N   0  0  0  0  0  0
    1.7046   54.2248  -20.9201 C   0  0  0  0  0  0
    1.8461   54.2212  -19.5280 N   0  0  0  0  0  0
    1.2620   53.4857  -18.4815 C   0  0  0  0  0  0
    0.4508   52.3601  -18.6552 C   0  0  0  0  0  0
   -0.1143   51.7196  -17.5537 C   0  0  0  0  0  0
    0.0931   52.1939  -16.2506 C   0  0  0  0  0  0
   -0.5322   51.5635  -15.1779 N   0  0  0  0  0  0
   -0.6903   50.1034  -15.0655 C   0  0  0  0  0  0
   -2.1445   49.6120  -15.2181 C   0  0  0  0  0  0
   -3.0044   50.3214  -14.1538 N   0  3  0  0  0  0
   -4.4631   49.8195  -14.2077 C   0  0  0  0  0  0
   -2.9224   51.8407  -14.4023 C   0  0  0  0  0  0
   -1.4470   52.2769  -14.2689 C   0  0  0  0  0  0
    0.9205   53.3244  -16.0752 C   0  0  0  0  0  0
    1.2691   53.8837  -14.6992 C   0  0  0  0  0  0
    1.5076   53.9336  -17.1861 C   0  0  0  0  0  0
    0.9217   53.3048  -21.5395 N   0  0  0  0  0  0
    0.8581   53.3440  -22.9021 C   0  0  0  0  0  0
   -0.1748   49.7759  -23.2499 C   0  0  0  0  0  0
   -0.0595   51.2208  -21.7790 H   0  0  0  0  0  0
   -0.2225   45.3790  -25.6219 H   0  0  0  0  0  0
   -1.1414   45.2155  -24.1349 H   0  0  0  0  0  0
   -1.9417   45.6887  -25.6457 H   0  0  0  0  0  0
   -0.7281   47.8412  -25.6792 H   0  0  0  0  0  0
    0.2250   47.3725  -24.2698 H   0  0  0  0  0  0
   -2.3995   49.6445  -21.3861 H   0  0  0  0  0  0
   -3.4950   49.7875  -22.8033 H   0  0  0  0  0  0
   -2.2992   52.0254  -21.8711 H   0  0  0  0  0  0
   -2.4287   51.7138  -23.5692 H   0  0  0  0  0  0
    3.1257   52.9811  -27.0442 H   0  0  0  0  0  0
    3.3939   53.0218  -29.4399 H   0  0  0  0  0  0
    0.8107   53.1769  -33.0917 H   0  0  0  0  0  0
   -0.2141   53.9765  -31.9206 H   0  0  0  0  0  0
   -0.0812   52.1998  -31.9226 H   0  0  0  0  0  0
   -0.8787   53.2955  -29.9080 H   0  0  0  0  0  0
   -1.1599   53.2906  -27.5009 H   0  0  0  0  0  0
    2.1281   54.8579  -25.6315 H   0  0  0  0  0  0
    0.4627   55.1833  -25.2599 H   0  0  0  0  0  0
    2.8234   56.0377  -23.4130 H   0  0  0  0  0  0
    2.4217   54.9900  -19.2212 H   0  0  0  0  0  0
    0.2412   51.9575  -19.6306 H   0  0  0  0  0  0
   -0.7438   50.8587  -17.7268 H   0  0  0  0  0  0
   -0.0769   49.6107  -15.8207 H   0  0  0  0  0  0
   -0.2737   49.7829  -14.1104 H   0  0  0  0  0  0
   -2.2304   48.5394  -15.0349 H   0  0  0  0  0  0
   -2.5697   49.8467  -16.1969 H   0  0  0  0  0  0
   -4.8456   49.9755  -15.2156 H   0  0  0  0  0  0
   -4.4486   48.7582  -13.9582 H   0  0  0  0  0  0
   -5.0350   50.3769  -13.4633 H   0  0  0  0  0  0
   -3.5381   52.3226  -13.6432 H   0  0  0  0  0  0
   -3.3465   52.0451  -15.3890 H   0  0  0  0  0  0
   -1.0996   52.1725  -13.2399 H   0  0  0  0  0  0
   -1.4149   53.3453  -14.4852 H   0  0  0  0  0  0
    1.3067   53.0947  -13.9476 H   0  0  0  0  0  0
    2.2573   54.3441  -14.7010 H   0  0  0  0  0  0
    0.5428   54.6360  -14.3906 H   0  0  0  0  0  0
    2.1592   54.7769  -17.0365 H   0  0  0  0  0  0
    0.2696   49.7398  -24.2438 H   0  0  0  0  0  0
    0.4912   49.3075  -22.5227 H   0  0  0  0  0  0
   -2.6279   50.1404  -13.2322 H   0  0  0  0  0  0
  1  2  1  0  0  0
  1 45  1  0  0  0
  1 46  1  0  0  0
  1 47  1  0  0  0
  2  3  1  0  0  0
  2 48  1  0  0  0
  2 49  1  0  0  0
  3  4  2  0  0  0
  3  5  1  0  0  0
  5 43  1  0  0  0
  5  6  1  0  0  0
  6  7  1  0  0  0
  6 50  1  0  0  0
  6 51  1  0  0  0
  7  8  1  0  0  0
  7 52  1  0  0  0
  7 53  1  0  0  0
  8 44  1  0  0  0
  8  9  1  0  0  0
  8 43  1  0  0  0
  9 42  1  0  0  0
  9 10  1  0  0  0
 10 11  2  0  0  0
 10 12  1  0  0  0
 12 13  1  0  0  0
 12 21  1  0  0  0
 13 20  1  0  0  0
 13 14  2  0  0  0
 14 15  1  0  0  0
 14 54  1  0  0  0
 15 16  2  0  0  0
 15 55  1  0  0  0
 16 17  1  0  0  0
 16 19  1  0  0  0
 17 18  1  0  0  0
 18 56  1  0  0  0
 18 57  1  0  0  0
 18 58  1  0  0  0
 19 20  2  0  0  0
 19 59  1  0  0  0
 20 60  1  0  0  0
 21 22  1  0  0  0
 21 61  1  0  0  0
 21 62  1  0  0  0
 22 42  2  0  0  0
 22 23  1  0  0  0
 23 24  2  0  0  0
 23 63  1  0  0  0
 24 25  1  0  0  0
 25 26  1  0  0  0
 25 41  2  0  0  0
 26 27  1  0  0  0
 26 64  1  0  0  0
 27 40  1  0  0  0
 27 28  2  0  0  0
 28 29  1  0  0  0
 28 65  1  0  0  0
 29 30  2  0  0  0
 29 66  1  0  0  0
 30 31  1  0  0  0
 30 38  1  0  0  0
 31 37  1  0  0  0
 31 32  1  0  0  0
 32 33  1  0  0  0
 32 67  1  0  0  0
 32 68  1  0  0  0
 33 34  1  0  0  0
 33 69  1  0  0  0
 33 70  1  0  0  0
 34 35  1  0  0  0
 34 36  1  0  0  0
 34 84  1  0  0  0
 35 71  1  0  0  0
 35 72  1  0  0  0
 35 73  1  0  0  0
 36 37  1  0  0  0
 36 74  1  0  0  0
 36 75  1  0  0  0
 37 76  1  0  0  0
 37 77  1  0  0  0
 38 39  1  0  0  0
 38 40  2  0  0  0
 39 78  1  0  0  0
 39 79  1  0  0  0
 39 80  1  0  0  0
 40 81  1  0  0  0
 41 42  1  0  0  0
 43 82  1  0  0  0
 43 83  1  0  0  0
M  CHG  1  34   1
M  END
> <s_m_source_file>
/home/user-home/yujie/0_PBCNetv2/data/0_0_high_sim/0_noncov/Sries46644/ligprep_input.csv

> <i_m_source_file_index>
25

> <i_lp_mmshare_version>
51139

> <i_f3d_flags>
0

> <s_epik_input>
W0NIM11PYyhbY0hdW2NIXTEpW2NIXVtjSF1jMU4oW0NIMl0yKUMoPU8pTihbQ0BIXShbQ0gyXTMpW0NIMl1bQ0gyXU4zQyg9TylbQ0gyXVtDSDNdKWMoYzI0KW5jKG5bY0hdNClbTkhdYzVbY0hdW2NIXWMoYyhbQ0gzXSlbY0hdNSlONltDSDJdW0NIMl1OKFtDSDNdKVtDSDJdW0NIMl02

> <s_epik_cmdline>
J2VwaWtfcHl0aG9uJywgJy1waHQnLCAnMi4wJywgJy1waCcsICc3LjQnLCAnLXRuJywgJzgnLCAnLW1hJywgJzIwMCcsICctaW1hZScsICc8aW5maWxlLm1hZT4nLCAnLW9tYWUnLCAnPG91dGZpbGUubWFlPic=

> <r_lp_tautomer_probability>
1

> <r_epik_Ionization_Penalty>
  0.1543

> <r_epik_Ionization_Penalty_Charging>
  0.1509

> <r_epik_Ionization_Penalty_Neutral>
  0.0034

> <r_epik_State_Penalty>
  0.3739

> <r_epik_Charging_Adjusted_Penalty>
0.524757

> <i_epik_Tot_Q>
1

> <i_epik_Tot_abs_Q>
1

> <s_lp_Force_Field>
OPLS3e

> <r_lp_Energy>
100.939

> <b_lp_Chiralities_Consistent>
1

> <s_lp_Variant>
lig24-1

> <s_i_glide_gridfile>
Sries53139-001-gridgen

> <i_i_glide_lignum>
76

> <i_i_glide_rotatable_bonds>
8

> <r_i_docking_score>
-7.80817767033003

> <r_i_glide_ligand_efficiency>
-0.181585527216977

> <r_i_glide_ligand_efficiency_sa>
-0.636166383048677

> <r_i_glide_ligand_efficiency_ln>
-1.6399599850032

> <r_i_glide_gscore>
-8.18203167033003

> <r_i_glide_lipo>
-3.83903124419936

> <r_i_glide_hbond>
0

> <r_i_glide_metal>
-0

> <r_i_glide_rewards>
-1.20291940292691

> <r_i_glide_evdw>
-50.4990577697754

> <r_i_glide_ecoul>
-5.40652751922607

> <r_i_glide_erotb>
0.26142175866781

> <r_i_glide_esite>
-0.0655707654988939

> <r_i_glide_emodel>
-82.4030477321086

> <r_i_glide_energy>
-55.9055852890015

> <r_i_glide_einternal>
11.7388763427734

> <i_i_glide_confnum>
56

> <i_i_glide_posenum>
257

> <r_i_glide_eff_state_penalty>
0.373854

$$$$
