lig14
                    3D
 Schrodinger Suite 2020-3.
 80 85  0  0  1  0            999 V2000
   -1.2689   46.5374  -24.2604 C   0  0  0  0  0  0
   -0.9756   48.0501  -24.1931 C   0  0  0  0  0  0
   -2.2330   48.9427  -24.2237 C   0  0  0  0  0  0
   -3.3398   48.4250  -24.3876 O   0  0  0  0  0  0
   -2.0838   50.2760  -24.0339 N   0  0  0  0  0  0
   -3.2103   51.2089  -24.1414 C   0  0  0  0  0  0
   -2.5503   52.4152  -24.7962 C   0  0  0  0  0  0
   -1.1246   52.4323  -24.2242 C   0  0  2  0  0  0
   -0.1142   53.1609  -25.0599 N   0  0  0  0  0  0
    0.0737   52.8053  -26.3760 C   0  0  0  0  0  0
   -0.3885   51.7703  -26.8697 O   0  0  0  0  0  0
    0.8691   53.6670  -27.1012 N   0  0  0  0  0  0
    1.1068   53.4315  -28.4675 C   0  0  0  0  0  0
    0.0453   53.4236  -29.3854 C   0  0  0  0  0  0
    0.2901   53.1740  -30.7326 C   0  0  0  0  0  0
    1.5937   52.9432  -31.1679 C   0  0  0  0  0  0
    2.6549   52.9559  -30.2651 C   0  0  0  0  0  0
    2.4125   53.1813  -28.9119 C   0  0  0  0  0  0
    3.4471   53.1515  -28.0430 F   0  0  0  0  0  0
    1.2224   55.0312  -26.6216 C   0  0  0  0  0  0
    1.4219   55.0414  -25.1177 C   0  0  0  0  0  0
    2.2512   55.9121  -24.4002 C   0  0  0  0  0  0
    2.4487   55.7854  -23.0590 N   0  0  0  0  0  0
    1.7659   54.7967  -22.4271 C   0  0  0  0  0  0
    1.9840   54.6851  -21.0450 N   0  0  0  0  0  0
    1.4798   53.8116  -20.0583 C   0  0  0  0  0  0
    0.7788   52.6335  -20.3364 C   0  0  0  0  0  0
    0.2016   51.8880  -19.3126 C   0  0  0  0  0  0
    0.3132   52.2783  -17.9709 C   0  0  0  0  0  0
   -0.3968   51.5637  -17.0067 N   0  0  0  0  0  0
   -1.7285   50.9863  -17.2666 C   0  0  0  0  0  0
   -2.6883   51.0302  -16.0552 C   0  0  0  0  0  0
   -2.0165   50.4432  -14.7948 N   0  3  0  0  0  0
   -2.9428   50.6437  -13.5741 C   0  0  0  0  0  0
   -0.6512   51.1260  -14.5739 C   0  0  0  0  0  0
    0.2061   50.9057  -15.8386 C   0  0  0  0  0  0
    1.0976   53.4176  -17.6744 C   0  0  0  0  0  0
    1.2790   53.9772  -16.2669 C   0  0  0  0  0  0
    1.6625   54.1620  -18.7191 C   0  0  0  0  0  0
    0.9013   53.9512  -23.0371 N   0  0  0  0  0  0
    0.7165   54.0913  -24.3767 C   0  0  0  0  0  0
   -0.7806   50.9525  -23.9563 C   0  0  0  0  0  0
   -1.2441   52.8972  -23.2445 H   0  0  0  0  0  0
   -0.3395   45.9742  -24.2750 H   0  0  0  0  0  0
   -1.8376   46.1949  -23.3939 H   0  0  0  0  0  0
   -1.8100   46.2694  -25.1691 H   0  0  0  0  0  0
   -0.3456   48.3175  -25.0418 H   0  0  0  0  0  0
   -0.4068   48.2685  -23.2888 H   0  0  0  0  0  0
   -3.5450   51.4926  -23.1419 H   0  0  0  0  0  0
   -4.0339   50.8447  -24.7607 H   0  0  0  0  0  0
   -3.0917   53.3477  -24.6429 H   0  0  0  0  0  0
   -2.5734   52.2679  -25.8758 H   0  0  0  0  0  0
   -0.9671   53.6094  -29.0557 H   0  0  0  0  0  0
   -0.5282   53.1773  -31.4408 H   0  0  0  0  0  0
    1.7816   52.7773  -32.2163 H   0  0  0  0  0  0
    3.6652   52.7797  -30.6086 H   0  0  0  0  0  0
    2.0882   55.4216  -27.1581 H   0  0  0  0  0  0
    0.3942   55.6990  -26.8624 H   0  0  0  0  0  0
    2.8230   56.6811  -24.9022 H   0  0  0  0  0  0
    2.5114   55.4587  -20.6690 H   0  0  0  0  0  0
    0.6497   52.2711  -21.3404 H   0  0  0  0  0  0
   -0.3570   51.0016  -19.5772 H   0  0  0  0  0  0
   -2.1996   51.5146  -18.0993 H   0  0  0  0  0  0
   -1.6096   49.9551  -17.6052 H   0  0  0  0  0  0
   -3.5438   50.3856  -16.2412 H   0  0  0  0  0  0
   -3.0440   52.0384  -15.8307 H   0  0  0  0  0  0
   -3.1342   51.7114  -13.4434 H   0  0  0  0  0  0
   -3.8775   50.1165  -13.7762 H   0  0  0  0  0  0
   -2.4495   50.2246  -12.6956 H   0  0  0  0  0  0
   -0.2037   50.6632  -13.6940 H   0  0  0  0  0  0
   -0.8388   52.1835  -14.3746 H   0  0  0  0  0  0
    0.3076   49.8403  -16.0539 H   0  0  0  0  0  0
    1.2362   51.2223  -15.6850 H   0  0  0  0  0  0
    0.5686   54.7811  -16.0868 H   0  0  0  0  0  0
    1.1641   53.2587  -15.4638 H   0  0  0  0  0  0
    2.2872   54.3740  -16.1475 H   0  0  0  0  0  0
    2.2082   55.0639  -18.4811 H   0  0  0  0  0  0
   -0.1066   50.5857  -24.7287 H   0  0  0  0  0  0
   -0.3289   50.8699  -22.9672 H   0  0  0  0  0  0
   -1.8570   49.4566  -14.9501 H   0  0  0  0  0  0
  1  2  1  0  0  0
  1 44  1  0  0  0
  1 45  1  0  0  0
  1 46  1  0  0  0
  2  3  1  0  0  0
  2 47  1  0  0  0
  2 48  1  0  0  0
  3  4  2  0  0  0
  3  5  1  0  0  0
  5 42  1  0  0  0
  5  6  1  0  0  0
  6  7  1  0  0  0
  6 49  1  0  0  0
  6 50  1  0  0  0
  7  8  1  0  0  0
  7 51  1  0  0  0
  7 52  1  0  0  0
  8 43  1  0  0  0
  8  9  1  0  0  0
  8 42  1  0  0  0
  9 41  1  0  0  0
  9 10  1  0  0  0
 10 11  2  0  0  0
 10 12  1  0  0  0
 12 13  1  0  0  0
 12 20  1  0  0  0
 13 18  1  0  0  0
 13 14  2  0  0  0
 14 15  1  0  0  0
 14 53  1  0  0  0
 15 16  2  0  0  0
 15 54  1  0  0  0
 16 17  1  0  0  0
 16 55  1  0  0  0
 17 18  2  0  0  0
 17 56  1  0  0  0
 18 19  1  0  0  0
 20 21  1  0  0  0
 20 57  1  0  0  0
 20 58  1  0  0  0
 21 41  2  0  0  0
 21 22  1  0  0  0
 22 23  2  0  0  0
 22 59  1  0  0  0
 23 24  1  0  0  0
 24 25  1  0  0  0
 24 40  2  0  0  0
 25 26  1  0  0  0
 25 60  1  0  0  0
 26 39  1  0  0  0
 26 27  2  0  0  0
 27 28  1  0  0  0
 27 61  1  0  0  0
 28 29  2  0  0  0
 28 62  1  0  0  0
 29 30  1  0  0  0
 29 37  1  0  0  0
 30 36  1  0  0  0
 30 31  1  0  0  0
 31 32  1  0  0  0
 31 63  1  0  0  0
 31 64  1  0  0  0
 32 33  1  0  0  0
 32 65  1  0  0  0
 32 66  1  0  0  0
 33 34  1  0  0  0
 33 35  1  0  0  0
 33 80  1  0  0  0
 34 67  1  0  0  0
 34 68  1  0  0  0
 34 69  1  0  0  0
 35 36  1  0  0  0
 35 70  1  0  0  0
 35 71  1  0  0  0
 36 72  1  0  0  0
 36 73  1  0  0  0
 37 38  1  0  0  0
 37 39  2  0  0  0
 38 74  1  0  0  0
 38 75  1  0  0  0
 38 76  1  0  0  0
 39 77  1  0  0  0
 40 41  1  0  0  0
 42 78  1  0  0  0
 42 79  1  0  0  0
M  CHG  1  33   1
M  END
> <s_m_source_file>
/home/user-home/yujie/0_PBCNetv2/data/0_0_high_sim/0_noncov/Sries46644/ligprep_input.csv

> <i_m_source_file_index>
15

> <i_lp_mmshare_version>
51139

> <i_f3d_flags>
0

> <s_epik_input>
RmMxW2NIXVtjSF1bY0hdW2NIXWMxTihbQ0gyXTIpQyg9TylOKFtDQEhdKFtDSDJdMylbQ0gyXVtDSDJdTjNDKD1PKVtDSDJdW0NIM10pYyhjMjQpbmMobltjSF00KVtOSF1jNVtjSF1bY0hdYyhjKFtDSDNdKVtjSF01KU42W0NIMl1bQ0gyXU4oW0NIM10pW0NIMl1bQ0gyXTY=

> <s_epik_cmdline>
J2VwaWtfcHl0aG9uJywgJy1waHQnLCAnMi4wJywgJy1waCcsICc3LjQnLCAnLXRuJywgJzgnLCAnLW1hJywgJzIwMCcsICctaW1hZScsICc8aW5maWxlLm1hZT4nLCAnLW9tYWUnLCAnPG91dGZpbGUubWFlPic=

> <r_lp_tautomer_probability>
1

> <r_epik_Ionization_Penalty>
  0.1539

> <r_epik_Ionization_Penalty_Charging>
  0.1509

> <r_epik_Ionization_Penalty_Neutral>
  0.0030

> <r_epik_State_Penalty>
  0.3739

> <r_epik_Charging_Adjusted_Penalty>
0.524757

> <i_epik_Tot_Q>
1

> <i_epik_Tot_abs_Q>
1

> <s_lp_Force_Field>
OPLS3e

> <r_lp_Energy>
105.396

> <b_lp_Chiralities_Consistent>
1

> <s_lp_Variant>
lig14-1

> <s_i_glide_gridfile>
Sries53139-001-gridgen

> <i_i_glide_lignum>
46

> <i_i_glide_rotatable_bonds>
7

> <r_i_docking_score>
-10.697718764589

> <r_i_glide_ligand_efficiency>
-0.25470758963307

> <r_i_glide_ligand_efficiency_sa>
-0.885370367116282

> <r_i_glide_ligand_efficiency_ln>
-2.2580128262437

> <r_i_glide_gscore>
-11.071572764589

> <r_i_glide_lipo>
-4.13893678517025

> <r_i_glide_hbond>
-0.452591451113616

> <r_i_glide_metal>
-0

> <r_i_glide_rewards>
-2.70996151952645

> <r_i_glide_evdw>
-51.5963821411133

> <r_i_glide_ecoul>
-9.10474300384521

> <r_i_glide_erotb>
0.200853621898626

> <r_i_glide_esite>
-0.0254060730448218

> <r_i_glide_emodel>
-107.675365542172

> <r_i_glide_energy>
-60.7011251449585

> <r_i_glide_einternal>
8.05231761932373

> <i_i_glide_confnum>
147

> <i_i_glide_posenum>
113

> <r_i_glide_eff_state_penalty>
0.373854

$$$$
