lig21
                    3D
 Schrodinger Suite 2020-3.
 82 87  0  0  1  0            999 V2000
   -2.4997   45.5797  -23.3102 C   0  0  0  0  0  0
   -2.5844   47.1071  -23.1158 C   0  0  0  0  0  0
   -1.4865   47.9081  -23.8444 C   0  0  0  0  0  0
   -0.7397   47.3322  -24.6406 O   0  0  0  0  0  0
   -1.3532   49.2259  -23.5629 N   0  0  0  0  0  0
   -2.2601   49.9979  -22.7033 C   0  0  0  0  0  0
   -1.9437   51.4456  -23.0850 C   0  0  0  0  0  0
   -0.4751   51.4175  -23.5088 C   0  0  2  0  0  0
   -0.0466   52.6254  -24.2939 N   0  0  0  0  0  0
   -0.4474   52.7588  -25.6038 C   0  0  0  0  0  0
   -1.3845   52.1236  -26.0978 O   0  0  0  0  0  0
    0.3954   53.5479  -26.3515 N   0  0  0  0  0  0
    0.4640   53.4421  -27.7512 C   0  0  0  0  0  0
    1.7164   53.2426  -28.3405 C   0  0  0  0  0  0
    1.8165   53.1112  -29.7211 C   0  0  0  0  0  0
    0.6628   53.1767  -30.5027 C   0  0  0  0  0  0
    0.7508   52.9872  -31.9934 C   0  0  0  0  0  0
   -0.5827   53.4104  -29.9253 C   0  0  0  0  0  0
   -0.6837   53.5486  -28.5483 C   0  0  0  0  0  0
    0.9779   54.7905  -25.7951 C   0  0  0  0  0  0
    1.2952   54.6599  -24.3216 C   0  0  0  0  0  0
    2.0612   55.5761  -23.6004 C   0  0  0  0  0  0
    2.2608   55.4697  -22.2628 N   0  0  0  0  0  0
    1.6588   54.4261  -21.6394 C   0  0  0  0  0  0
    1.8284   54.3775  -20.2510 N   0  0  0  0  0  0
    1.3111   53.5750  -19.2204 C   0  0  0  0  0  0
    0.4740   52.4710  -19.4179 C   0  0  0  0  0  0
    0.0418   51.7136  -18.3338 C   0  0  0  0  0  0
    0.4200   52.0288  -17.0200 C   0  0  0  0  0  0
    0.0618   51.1886  -15.9651 N   0  0  0  0  0  0
    1.1237   50.4730  -15.2331 C   0  0  0  0  0  0
    1.4208   49.0781  -15.8370 C   0  0  0  0  0  0
    0.2206   48.2412  -15.7685 N   0  0  0  0  0  0
    0.4966   46.9100  -16.3019 C   0  0  0  0  0  0
   -0.8405   48.8843  -16.5448 C   0  0  0  0  0  0
   -1.1277   50.3116  -16.0074 C   0  0  0  0  0  0
    1.2290   53.1716  -16.8196 C   0  0  0  0  0  0
    1.6111   53.6796  -15.4314 C   0  0  0  0  0  0
    1.6615   53.9224  -17.9161 C   0  0  0  0  0  0
    0.9146   53.4817  -22.2620 N   0  0  0  0  0  0
    0.7509   53.5869  -23.6092 C   0  0  0  0  0  0
   -0.3327   50.0526  -24.2112 C   0  0  0  0  0  0
    0.0849   51.2996  -22.5807 H   0  0  0  0  0  0
   -3.2793   45.0800  -22.7340 H   0  0  0  0  0  0
   -1.5447   45.1822  -22.9676 H   0  0  0  0  0  0
   -2.6495   45.2942  -24.3521 H   0  0  0  0  0  0
   -3.5528   47.4555  -23.4730 H   0  0  0  0  0  0
   -2.5337   47.3244  -22.0488 H   0  0  0  0  0  0
   -3.3153   49.7944  -22.8951 H   0  0  0  0  0  0
   -2.0034   49.8429  -21.6541 H   0  0  0  0  0  0
   -2.5862   51.7525  -23.9110 H   0  0  0  0  0  0
   -2.1457   52.1580  -22.2838 H   0  0  0  0  0  0
    2.6079   53.1741  -27.7327 H   0  0  0  0  0  0
    2.7811   52.9406  -30.1771 H   0  0  0  0  0  0
    1.7576   53.1766  -32.3626 H   0  0  0  0  0  0
    0.4605   51.9760  -32.2443 H   0  0  0  0  0  0
    0.0609   53.6505  -32.5132 H   0  0  0  0  0  0
   -1.4689   53.4712  -30.5431 H   0  0  0  0  0  0
   -1.6543   53.7212  -28.1072 H   0  0  0  0  0  0
    1.8437   55.1165  -26.3726 H   0  0  0  0  0  0
    0.2408   55.5849  -25.9166 H   0  0  0  0  0  0
    2.5096   56.4276  -24.0941 H   0  0  0  0  0  0
    2.3190   55.1944  -19.9155 H   0  0  0  0  0  0
    0.1585   52.1559  -20.3968 H   0  0  0  0  0  0
   -0.5770   50.8555  -18.5430 H   0  0  0  0  0  0
    2.0502   51.0457  -15.2255 H   0  0  0  0  0  0
    0.8230   50.3639  -14.1897 H   0  0  0  0  0  0
    1.7723   49.1770  -16.8670 H   0  0  0  0  0  0
    2.2289   48.6037  -15.2761 H   0  0  0  0  0  0
   -0.3934   46.2798  -16.2427 H   0  0  0  0  0  0
    0.8179   46.9508  -17.3454 H   0  0  0  0  0  0
    1.2814   46.4177  -15.7243 H   0  0  0  0  0  0
   -1.7533   48.2935  -16.4636 H   0  0  0  0  0  0
   -0.5807   48.9082  -17.6045 H   0  0  0  0  0  0
   -1.5226   50.2273  -14.9934 H   0  0  0  0  0  0
   -1.9223   50.7774  -16.5945 H   0  0  0  0  0  0
    0.8989   53.3620  -14.6678 H   0  0  0  0  0  0
    2.6097   53.3408  -15.1551 H   0  0  0  0  0  0
    1.6073   54.7719  -15.4089 H   0  0  0  0  0  0
    2.2830   54.7902  -17.7431 H   0  0  0  0  0  0
    0.6804   49.6669  -24.0985 H   0  0  0  0  0  0
   -0.5613   50.1011  -25.2751 H   0  0  0  0  0  0
  1  2  1  0  0  0
  1 44  1  0  0  0
  1 45  1  0  0  0
  1 46  1  0  0  0
  2  3  1  0  0  0
  2 47  1  0  0  0
  2 48  1  0  0  0
  3  4  2  0  0  0
  3  5  1  0  0  0
  5 42  1  0  0  0
  5  6  1  0  0  0
  6  7  1  0  0  0
  6 49  1  0  0  0
  6 50  1  0  0  0
  7  8  1  0  0  0
  7 51  1  0  0  0
  7 52  1  0  0  0
  8 43  1  0  0  0
  8  9  1  0  0  0
  8 42  1  0  0  0
  9 41  1  0  0  0
  9 10  1  0  0  0
 10 11  2  0  0  0
 10 12  1  0  0  0
 12 13  1  0  0  0
 12 20  1  0  0  0
 13 19  1  0  0  0
 13 14  2  0  0  0
 14 15  1  0  0  0
 14 53  1  0  0  0
 15 16  2  0  0  0
 15 54  1  0  0  0
 16 17  1  0  0  0
 16 18  1  0  0  0
 17 55  1  0  0  0
 17 56  1  0  0  0
 17 57  1  0  0  0
 18 19  2  0  0  0
 18 58  1  0  0  0
 19 59  1  0  0  0
 20 21  1  0  0  0
 20 60  1  0  0  0
 20 61  1  0  0  0
 21 41  2  0  0  0
 21 22  1  0  0  0
 22 23  2  0  0  0
 22 62  1  0  0  0
 23 24  1  0  0  0
 24 25  1  0  0  0
 24 40  2  0  0  0
 25 26  1  0  0  0
 25 63  1  0  0  0
 26 39  1  0  0  0
 26 27  2  0  0  0
 27 28  1  0  0  0
 27 64  1  0  0  0
 28 29  2  0  0  0
 28 65  1  0  0  0
 29 30  1  0  0  0
 29 37  1  0  0  0
 30 36  1  0  0  0
 30 31  1  0  0  0
 31 32  1  0  0  0
 31 66  1  0  0  0
 31 67  1  0  0  0
 32 33  1  0  0  0
 32 68  1  0  0  0
 32 69  1  0  0  0
 33 34  1  0  0  0
 33 35  1  0  0  0
 34 70  1  0  0  0
 34 71  1  0  0  0
 34 72  1  0  0  0
 35 36  1  0  0  0
 35 73  1  0  0  0
 35 74  1  0  0  0
 36 75  1  0  0  0
 36 76  1  0  0  0
 37 38  1  0  0  0
 37 39  2  0  0  0
 38 77  1  0  0  0
 38 78  1  0  0  0
 38 79  1  0  0  0
 39 80  1  0  0  0
 40 41  1  0  0  0
 42 81  1  0  0  0
 42 82  1  0  0  0
M  END
> <s_m_source_file>
/home/user-home/yujie/0_PBCNetv2/data/0_0_high_sim/0_noncov/Sries46644/ligprep_input.csv

> <i_m_source_file_index>
22

> <i_lp_mmshare_version>
51139

> <i_f3d_flags>
0

> <s_epik_input>
W2NIXTFbY0hdYyhbQ0gzXSlbY0hdW2NIXWMxTihbQ0gyXTIpQyg9TylOKFtDQEhdKFtDSDJdMylbQ0gyXVtDSDJdTjNDKD1PKVtDSDJdW0NIM10pYyhjMjQpbmMobltjSF00KVtOSF1jNVtjSF1bY0hdYyhjKFtDSDNdKVtjSF01KU42W0NIMl1bQ0gyXU4oW0NIM10pW0NIMl1bQ0gyXTY=

> <s_epik_cmdline>
J2VwaWtfcHl0aG9uJywgJy1waHQnLCAnMi4wJywgJy1waCcsICc3LjQnLCAnLXRuJywgJzgnLCAnLW1hJywgJzIwMCcsICctaW1hZScsICc8aW5maWxlLm1hZT4nLCAnLW9tYWUnLCAnPG91dGZpbGUubWFlPic=

> <r_lp_tautomer_probability>
1

> <r_epik_Ionization_Penalty>
  1.5724

> <r_epik_Ionization_Penalty_Charging>
  0.0000

> <r_epik_Ionization_Penalty_Neutral>
  1.5724

> <r_epik_State_Penalty>
  1.1563

> <r_epik_Charging_Adjusted_Penalty>
1.15633

> <i_epik_Tot_Q>
0

> <i_epik_Tot_abs_Q>
0

> <s_lp_Force_Field>
OPLS3e

> <r_lp_Energy>
102.126

> <b_lp_Chiralities_Consistent>
1

> <s_lp_Variant>
lig21-3

> <s_i_glide_gridfile>
Sries53139-001-gridgen

> <i_i_glide_lignum>
69

> <i_i_glide_rotatable_bonds>
7

> <r_i_docking_score>
-7.25583464336146

> <r_i_glide_ligand_efficiency>
-0.172757967699082

> <r_i_glide_ligand_efficiency_sa>
-0.600511298090272

> <r_i_glide_ligand_efficiency_ln>
-1.53151976139495

> <r_i_glide_gscore>
-8.41216464336146

> <r_i_glide_lipo>
-3.27479840786846

> <r_i_glide_hbond>
-0.308009076300481

> <r_i_glide_metal>
-0

> <r_i_glide_rewards>
-2.07087425600004

> <r_i_glide_evdw>
-50.7637138366699

> <r_i_glide_ecoul>
-2.85732698440552

> <r_i_glide_erotb>
0.208600043979407

> <r_i_glide_esite>
-0.000298207677563431

> <r_i_glide_emodel>
-74.9546634511327

> <r_i_glide_energy>
-53.6210408210754

> <r_i_glide_einternal>
10.5783071517944

> <i_i_glide_confnum>
113

> <i_i_glide_posenum>
286

> <r_i_glide_eff_state_penalty>
1.15633

$$$$
