lig20
                    3D
 Schrodinger Suite 2020-3.
 83 88  0  0  1  0            999 V2000
   -2.6104   45.9822  -23.2308 C   0  0  0  0  0  0
   -2.6978   47.5083  -23.4376 C   0  0  0  0  0  0
   -1.3807   48.1778  -23.8844 C   0  0  0  0  0  0
   -0.4338   47.4754  -24.2451 O   0  0  0  0  0  0
   -1.2895   49.5267  -23.8435 N   0  0  0  0  0  0
   -2.4083   50.4288  -23.5443 C   0  0  0  0  0  0
   -1.9624   51.7408  -24.1896 C   0  0  0  0  0  0
   -0.4319   51.7087  -24.1048 C   0  0  2  0  0  0
    0.2640   52.6860  -25.0208 N   0  0  0  0  0  0
    0.1003   52.5616  -26.3846 C   0  0  0  0  0  0
   -0.5015   51.6199  -26.9172 O   0  0  0  0  0  0
    0.5860   53.6123  -27.1334 N   0  0  0  0  0  0
    0.4219   53.5948  -28.5229 C   0  0  0  0  0  0
    1.4731   53.1955  -29.3558 C   0  0  0  0  0  0
    1.2865   53.1769  -30.7355 C   0  0  0  0  0  0
    0.0607   53.5657  -31.2756 C   0  0  0  0  0  0
   -0.9882   53.9741  -30.4499 C   0  0  0  0  0  0
   -2.3160   54.4031  -31.0442 C   0  0  0  0  0  0
   -0.8052   53.9771  -29.0692 C   0  0  0  0  0  0
    1.5966   54.5803  -26.6529 C   0  0  0  0  0  0
    1.5772   54.7479  -25.1541 C   0  0  0  0  0  0
    2.1857   55.7992  -24.4585 C   0  0  0  0  0  0
    2.2786   55.8220  -23.1024 N   0  0  0  0  0  0
    1.7255   54.7769  -22.4405 C   0  0  0  0  0  0
    1.8292   54.7768  -21.0429 N   0  0  0  0  0  0
    1.2636   53.9283  -20.0696 C   0  0  0  0  0  0
    0.1558   53.1090  -20.3166 C   0  0  0  0  0  0
   -0.4322   52.3752  -19.2960 C   0  0  0  0  0  0
    0.0600   52.4237  -17.9863 C   0  0  0  0  0  0
   -0.6519   51.7965  -16.9658 N   0  0  0  0  0  0
   -1.5338   52.6627  -16.1557 C   0  0  0  0  0  0
   -2.0558   52.0154  -14.8579 C   0  0  0  0  0  0
   -2.7990   50.7136  -15.2183 N   0  3  0  0  0  0
   -3.3249   50.0368  -13.9386 C   0  0  0  0  0  0
   -1.8125   49.7867  -15.9500 C   0  0  0  0  0  0
   -1.3190   50.5028  -17.2225 C   0  0  0  0  0  0
    1.1806   53.2441  -17.7272 C   0  0  0  0  0  0
    1.7917   53.3526  -16.3352 C   0  0  0  0  0  0
    1.7697   53.9771  -18.7681 C   0  0  0  0  0  0
    1.0980   53.7434  -23.0407 N   0  0  0  0  0  0
    0.9815   53.7443  -24.3905 C   0  0  0  0  0  0
   -0.0841   50.2291  -24.2981 C   0  0  0  0  0  0
   -0.2440   51.8865  -23.0497 H   0  0  0  0  0  0
   -3.5898   45.5821  -22.9658 H   0  0  0  0  0  0
   -1.9387   45.7231  -22.4120 H   0  0  0  0  0  0
   -2.2931   45.4600  -24.1346 H   0  0  0  0  0  0
   -3.4538   47.7181  -24.1935 H   0  0  0  0  0  0
   -3.0389   47.9662  -22.5076 H   0  0  0  0  0  0
   -3.3536   50.1129  -23.9901 H   0  0  0  0  0  0
   -2.4896   50.5852  -22.4677 H   0  0  0  0  0  0
   -2.3176   51.7682  -25.2200 H   0  0  0  0  0  0
   -2.3959   52.6241  -23.7187 H   0  0  0  0  0  0
    2.4241   52.8926  -28.9412 H   0  0  0  0  0  0
    2.0890   52.8663  -31.3894 H   0  0  0  0  0  0
   -0.0749   53.5683  -32.3475 H   0  0  0  0  0  0
   -2.3101   54.3772  -32.1340 H   0  0  0  0  0  0
   -3.1164   53.7510  -30.6936 H   0  0  0  0  0  0
   -2.5540   55.4190  -30.7343 H   0  0  0  0  0  0
   -1.6144   54.2762  -28.4215 H   0  0  0  0  0  0
    2.5785   54.1878  -26.9196 H   0  0  0  0  0  0
    1.5003   55.5327  -27.1756 H   0  0  0  0  0  0
    2.6703   56.6091  -24.9886 H   0  0  0  0  0  0
    2.2257   55.6282  -20.6671 H   0  0  0  0  0  0
   -0.3333   53.0793  -21.2728 H   0  0  0  0  0  0
   -1.3154   51.8012  -19.5366 H   0  0  0  0  0  0
   -1.0263   53.5905  -15.8918 H   0  0  0  0  0  0
   -2.4019   52.9372  -16.7595 H   0  0  0  0  0  0
   -2.7818   52.6585  -14.3557 H   0  0  0  0  0  0
   -1.2546   51.7700  -14.1590 H   0  0  0  0  0  0
   -2.4806   49.7598  -13.3052 H   0  0  0  0  0  0
   -3.9488   50.7760  -13.4459 H   0  0  0  0  0  0
   -3.9145   49.1686  -14.2379 H   0  0  0  0  0  0
   -2.3585   48.8730  -16.1898 H   0  0  0  0  0  0
   -0.9961   49.5486  -15.2644 H   0  0  0  0  0  0
   -2.1862   50.6588  -17.8668 H   0  0  0  0  0  0
   -0.6290   49.8389  -17.7475 H   0  0  0  0  0  0
    1.1517   53.9334  -15.6692 H   0  0  0  0  0  0
    1.9087   52.3581  -15.9007 H   0  0  0  0  0  0
    2.7810   53.8140  -16.3544 H   0  0  0  0  0  0
    2.6138   54.6185  -18.5543 H   0  0  0  0  0  0
    0.8261   49.9601  -23.7592 H   0  0  0  0  0  0
    0.0595   50.0026  -25.3486 H   0  0  0  0  0  0
   -3.5850   50.9369  -15.8278 H   0  0  0  0  0  0
  1  2  1  0  0  0
  1 44  1  0  0  0
  1 45  1  0  0  0
  1 46  1  0  0  0
  2  3  1  0  0  0
  2 47  1  0  0  0
  2 48  1  0  0  0
  3  4  2  0  0  0
  3  5  1  0  0  0
  5 42  1  0  0  0
  5  6  1  0  0  0
  6  7  1  0  0  0
  6 49  1  0  0  0
  6 50  1  0  0  0
  7  8  1  0  0  0
  7 51  1  0  0  0
  7 52  1  0  0  0
  8 43  1  0  0  0
  8  9  1  0  0  0
  8 42  1  0  0  0
  9 41  1  0  0  0
  9 10  1  0  0  0
 10 11  2  0  0  0
 10 12  1  0  0  0
 12 13  1  0  0  0
 12 20  1  0  0  0
 13 19  1  0  0  0
 13 14  2  0  0  0
 14 15  1  0  0  0
 14 53  1  0  0  0
 15 16  2  0  0  0
 15 54  1  0  0  0
 16 17  1  0  0  0
 16 55  1  0  0  0
 17 18  1  0  0  0
 17 19  2  0  0  0
 18 56  1  0  0  0
 18 57  1  0  0  0
 18 58  1  0  0  0
 19 59  1  0  0  0
 20 21  1  0  0  0
 20 60  1  0  0  0
 20 61  1  0  0  0
 21 41  2  0  0  0
 21 22  1  0  0  0
 22 23  2  0  0  0
 22 62  1  0  0  0
 23 24  1  0  0  0
 24 25  1  0  0  0
 24 40  2  0  0  0
 25 26  1  0  0  0
 25 63  1  0  0  0
 26 39  1  0  0  0
 26 27  2  0  0  0
 27 28  1  0  0  0
 27 64  1  0  0  0
 28 29  2  0  0  0
 28 65  1  0  0  0
 29 30  1  0  0  0
 29 37  1  0  0  0
 30 36  1  0  0  0
 30 31  1  0  0  0
 31 32  1  0  0  0
 31 66  1  0  0  0
 31 67  1  0  0  0
 32 33  1  0  0  0
 32 68  1  0  0  0
 32 69  1  0  0  0
 33 34  1  0  0  0
 33 35  1  0  0  0
 33 83  1  0  0  0
 34 70  1  0  0  0
 34 71  1  0  0  0
 34 72  1  0  0  0
 35 36  1  0  0  0
 35 73  1  0  0  0
 35 74  1  0  0  0
 36 75  1  0  0  0
 36 76  1  0  0  0
 37 38  1  0  0  0
 37 39  2  0  0  0
 38 77  1  0  0  0
 38 78  1  0  0  0
 38 79  1  0  0  0
 39 80  1  0  0  0
 40 41  1  0  0  0
 42 81  1  0  0  0
 42 82  1  0  0  0
M  CHG  1  33   1
M  END
> <s_m_source_file>
/home/user-home/yujie/0_PBCNetv2/data/0_0_high_sim/0_noncov/Sries46644/ligprep_input.csv

> <i_m_source_file_index>
21

> <i_lp_mmshare_version>
51139

> <i_f3d_flags>
0

> <s_epik_input>
W0NIM11jKFtjSF0xKVtjSF1bY0hdW2NIXWMxTihbQ0gyXTIpQyg9TylOKFtDQEhdKFtDSDJdMylbQ0gyXVtDSDJdTjNDKD1PKVtDSDJdW0NIM10pYyhjMjQpbmMobltjSF00KVtOSF1jNVtjSF1bY0hdYyhjKFtDSDNdKVtjSF01KU42W0NIMl1bQ0gyXU4oW0NIM10pW0NIMl1bQ0gyXTY=

> <s_epik_cmdline>
J2VwaWtfcHl0aG9uJywgJy1waHQnLCAnMi4wJywgJy1waCcsICc3LjQnLCAnLXRuJywgJzgnLCAnLW1hJywgJzIwMCcsICctaW1hZScsICc8aW5maWxlLm1hZT4nLCAnLW9tYWUnLCAnPG91dGZpbGUubWFlPic=

> <r_lp_tautomer_probability>
1

> <r_epik_Ionization_Penalty>
  0.1541

> <r_epik_Ionization_Penalty_Charging>
  0.1509

> <r_epik_Ionization_Penalty_Neutral>
  0.0032

> <r_epik_State_Penalty>
  0.3739

> <r_epik_Charging_Adjusted_Penalty>
0.524757

> <i_epik_Tot_Q>
1

> <i_epik_Tot_abs_Q>
1

> <s_lp_Force_Field>
OPLS3e

> <r_lp_Energy>
105.576

> <b_lp_Chiralities_Consistent>
1

> <s_lp_Variant>
lig20-1

> <s_i_glide_gridfile>
Sries53139-001-gridgen

> <i_i_glide_lignum>
64

> <i_i_glide_rotatable_bonds>
7

> <r_i_docking_score>
-9.07565507176734

> <r_i_glide_ligand_efficiency>
-0.21608702551827

> <r_i_glide_ligand_efficiency_sa>
-0.751124257379946

> <r_i_glide_ligand_efficiency_ln>
-1.91563696986025

> <r_i_glide_gscore>
-9.44950907176734

> <r_i_glide_lipo>
-2.95000468036752

> <r_i_glide_hbond>
-0.724619430875486

> <r_i_glide_metal>
-0

> <r_i_glide_rewards>
-2.20406344835945

> <r_i_glide_evdw>
-47.6257972717285

> <r_i_glide_ecoul>
-8.93024349212646

> <r_i_glide_erotb>
0.207011506438003

> <r_i_glide_esite>
-0.0570066311974917

> <r_i_glide_emodel>
-88.7450021083646

> <r_i_glide_energy>
-56.556040763855

> <r_i_glide_einternal>
12.8367204666138

> <i_i_glide_confnum>
93

> <i_i_glide_posenum>
13

> <r_i_glide_eff_state_penalty>
0.373854

$$$$
