lig224
                    3D
 Schrodinger Suite 2023-4.
 58 61  0  0  1  0            999 V2000
   92.3953    3.0650   17.7555 C   0  0  0  0  0  0
   91.8168    3.1130   16.4524 O   0  0  0  0  0  0
   90.7412    2.2943   16.1648 C   0  0  0  0  0  0
   90.2542    1.3006   17.0169 C   0  0  0  0  0  0
   89.1426    0.5313   16.6523 C   0  0  0  0  0  0
   88.6321   -0.4817   17.4220 O   0  0  0  0  0  0
   89.3291   -0.8943   18.5837 C   0  0  0  0  0  0
   88.4922    0.7829   15.4447 C   0  0  0  0  0  0
   88.9603    1.7527   14.5666 C   0  0  0  0  0  0
   88.2147    2.0469   13.3913 N   0  0  0  0  0  0
   87.9435    3.4829   13.2374 C   0  0  0  0  0  0
   86.8365    4.1182   14.0924 C   0  0  2  0  0  0
   87.3690    4.3173   15.3835 O   0  0  0  0  0  0
   85.5120    3.3224   14.1124 C   0  0  0  0  0  0
   84.4135    4.1521   14.5765 N   0  0  0  0  0  0
   88.0689    1.2749   12.2064 C   0  0  0  0  0  0
   88.7641    0.0687   12.0583 C   0  0  0  0  0  0
   88.6964   -0.6683   10.8760 C   0  0  0  0  0  0
   87.9499   -0.1882    9.7815 C   0  0  0  0  0  0
   87.9431   -0.8835    8.6150 N   0  0  0  0  0  0
   87.0964   -0.4670    7.6446 C   0  0  0  0  0  0
   86.2433    0.6242    7.8220 C   0  0  0  0  0  0
   85.2054    0.9726    6.8109 C   0  0  0  0  0  0
   84.3464    2.0846    6.7594 C   0  0  0  0  0  0
   83.5092    2.0588    5.7487 N   0  0  0  0  0  0
   83.8100    0.9327    5.0957 N   0  0  0  0  0  0
   83.0237    0.5424    3.9413 C   0  0  0  0  0  0
   84.8271    0.2408    5.6925 C   0  0  0  0  0  0
   86.2926    1.3778    8.9555 N   0  0  0  0  0  0
   87.1524    0.9802    9.9398 C   0  0  0  0  0  0
   87.2220    1.6895   11.1556 C   0  0  0  0  0  0
   90.1166    2.4702   14.9337 C   0  0  0  0  0  0
   93.1417    3.8533   17.8421 H   0  0  0  0  0  0
   91.6571    3.2292   18.5423 H   0  0  0  0  0  0
   92.8963    2.1128   17.9342 H   0  0  0  0  0  0
   90.7427    1.1265   17.9612 H   0  0  0  0  0  0
   88.7823   -1.7387   18.9870 H   0  0  0  0  0  0
   89.3643   -0.1169   19.3476 H   0  0  0  0  0  0
   90.3403   -1.2298   18.3497 H   0  0  0  0  0  0
   87.6065    0.2212   15.1948 H   0  0  0  0  0  0
   88.8674    3.9169   13.5628 H   0  0  0  0  0  0
   87.8225    3.8107   12.2063 H   0  0  0  0  0  0
   86.6514    5.1117   13.6796 H   0  0  0  0  0  0
   86.9424    3.6745   15.9891 H   0  0  0  0  0  0
   85.2662    2.9863   13.1045 H   0  0  0  0  0  0
   85.5985    2.4292   14.7343 H   0  0  0  0  0  0
   83.5538    3.6254   14.5380 H   0  0  0  0  0  0
   84.5593    4.3129   15.5844 H   0  0  0  0  0  0
   89.3725   -0.3072   12.8674 H   0  0  0  0  0  0
   89.1520   -1.6390   10.7924 H   0  0  0  0  0  0
   87.0923   -1.0558    6.7389 H   0  0  0  0  0  0
   84.3278    2.8993    7.4683 H   0  0  0  0  0  0
   83.4843   -0.3126    3.4461 H   0  0  0  0  0  0
   82.0182    0.2682    4.2665 H   0  0  0  0  0  0
   82.9639    1.3748    3.2407 H   0  0  0  0  0  0
   85.1587   -0.7057    5.2931 H   0  0  0  0  0  0
   86.5813    2.5518   11.2445 H   0  0  0  0  0  0
   90.5545    3.2046   14.2759 H   0  0  0  0  0  0
  1  2  1  0  0  0
  1 33  1  0  0  0
  1 34  1  0  0  0
  1 35  1  0  0  0
  2  3  1  0  0  0
  3 32  1  0  0  0
  3  4  2  0  0  0
  4  5  1  0  0  0
  4 36  1  0  0  0
  5  6  1  0  0  0
  5  8  2  0  0  0
  6  7  1  0  0  0
  7 37  1  0  0  0
  7 38  1  0  0  0
  7 39  1  0  0  0
  8  9  1  0  0  0
  8 40  1  0  0  0
  9 10  1  0  0  0
  9 32  2  0  0  0
 10 11  1  0  0  0
 10 16  1  0  0  0
 11 12  1  0  0  0
 11 41  1  0  0  0
 11 42  1  0  0  0
 12 13  1  0  0  0
 12 14  1  0  0  0
 12 43  1  0  0  0
 13 44  1  0  0  0
 14 15  1  0  0  0
 14 45  1  0  0  0
 14 46  1  0  0  0
 15 47  1  0  0  0
 15 48  1  0  0  0
 16 31  1  0  0  0
 16 17  2  0  0  0
 17 18  1  0  0  0
 17 49  1  0  0  0
 18 19  2  0  0  0
 18 50  1  0  0  0
 19 30  1  0  0  0
 19 20  1  0  0  0
 20 21  2  0  0  0
 21 22  1  0  0  0
 21 51  1  0  0  0
 22 23  1  0  0  0
 22 29  2  0  0  0
 23 28  2  0  0  0
 23 24  1  0  0  0
 24 25  2  0  0  0
 24 52  1  0  0  0
 25 26  1  0  0  0
 26 27  1  0  0  0
 26 28  1  0  0  0
 27 53  1  0  0  0
 27 54  1  0  0  0
 27 55  1  0  0  0
 28 56  1  0  0  0
 29 30  1  0  0  0
 30 31  2  0  0  0
 31 57  1  0  0  0
 32 58  1  0  0  0
M  END
> <i_epik_Tot_Q>
0

> <i_epik_Tot_abs_Q>
0

> <i_i_glide_confnum>
165

> <i_i_glide_lignum>
287

> <i_i_glide_posenum>
156

> <i_i_glide_rotatable_bonds>
9

> <i_lp_mmshare_version>
51139

> <i_m_source_file_index>
225

> <i_f3d_flags>
0

> <b_lp_Chiralities_Consistent>
1

> <r_epik_Charging_Adjusted_Penalty>
2.09234

> <r_epik_Ionization_Penalty>
1.9662

> <r_epik_Ionization_Penalty_Charging>
0

> <r_epik_Ionization_Penalty_Neutral>
1.9662

> <r_epik_State_Penalty>
2.0923

> <r_i_docking_score>
-7.46167

> <r_i_glide_ecoul>
-15.1162

> <r_i_glide_eff_state_penalty>
2.09234

> <r_i_glide_einternal>
18.0479

> <r_i_glide_emodel>
-83.5249

> <r_i_glide_energy>
-58.4041

> <r_i_glide_erotb>
0.527491

> <r_i_glide_esite>
0

> <r_i_glide_evdw>
-43.2879

> <r_i_glide_gscore>
-9.55401

> <r_i_glide_hbond>
-0.96

> <r_i_glide_ligand_efficiency>
-0.233177

> <r_i_glide_ligand_efficiency_ln>
-1.67087

> <r_i_glide_ligand_efficiency_sa>
-0.740291

> <r_i_glide_lipo>
-3.57349

> <r_i_glide_metal>
-0

> <r_i_glide_rewards>
-1.11619

> <r_lp_Energy>
58.6182

> <r_lp_tautomer_probability>
1

> <s_epik_cmdline>
J2VwaWtfcHl0aG9uJywgJy1waHQnLCAnMi4wJywgJy1waCcsICc3LjQnLCAnLXRuJywgJzgnLCAnLW1hJywgJzIwMCcsICctaW1hZScsICc8aW5maWxlLm1hZT4nLCAnLW9tYWUnLCAnPG91dGZpbGUubWFlPic=

> <s_epik_input>
W0NIM11PYzFbY0hdYyhPW0NIM10pW2NIXWMoW2NIXTEpTihbQ0gyXVtDQEhdKFtPSF0pW0NIMl1bTkgyXSljKFtjSF1bY0hdMilbY0hdYyhjMjMpbmMoW2NIXW4zKS1jNFtjSF1ubihbQ0gzXSlbY0hdNA==

> <s_i_glide_gridfile>
Sries43413-001-gridgen

> <s_lp_Force_Field>
OPLS3e

> <s_lp_Variant>
lig224-2

> <s_m_source_file>
/home/user-home/yujie/0_PBCNetv2/data/0_0_high_sim/0_noncov/Sries43413/ligprep_input.csv

$$$$
