lig111
                    3D
 Schrodinger Suite 2023-4.
 72 76  0  0  1  0            999 V2000
   92.7380    3.2819   18.0295 C   0  0  0  0  0  0
   92.1426    3.2342   16.7400 O   0  0  0  0  0  0
   91.0122    2.4717   16.5581 C   0  0  0  0  0  0
   90.4866    1.5599   17.4826 C   0  0  0  0  0  0
   89.3277    0.8253   17.1973 C   0  0  0  0  0  0
   88.7434   -0.0916   18.0467 O   0  0  0  0  0  0
   89.3031   -0.3117   19.3273 C   0  0  0  0  0  0
   88.6869    1.0429   15.9712 C   0  0  0  0  0  0
   89.1647    1.9853   15.0646 C   0  0  0  0  0  0
   88.4436    2.2816   13.8964 N   0  0  0  0  0  0
   88.1590    3.7246   13.7827 C   0  0  0  0  0  0
   86.8952    4.3413   14.3460 C   0  0  2  0  0  0
   87.1420    4.7163   15.6722 O   0  0  0  0  0  0
   85.7628    3.3444   14.1019 C   0  0  0  0  0  0
   84.3667    3.7538   14.5825 N   0  3  0  0  0  0
   83.4764    2.5850   14.1217 C   0  0  0  0  0  0
   82.1334    2.8249   14.7348 C   0  0  0  0  0  0
   81.4928    4.1420   14.2748 C   0  0  0  0  0  0
   82.4256    5.3350   14.5620 C   0  0  0  0  0  0
   83.8597    5.1120   14.0346 C   0  0  0  0  0  0
   88.3562    1.4803   12.7193 C   0  0  0  0  0  0
   89.0110    0.2437   12.6985 C   0  0  0  0  0  0
   88.9633   -0.6036   11.6019 C   0  0  0  0  0  0
   88.3363   -0.1754   10.4274 C   0  0  0  0  0  0
   88.3369   -0.9916    9.3467 N   0  0  0  0  0  0
   87.5404   -0.6594    8.3045 C   0  0  0  0  0  0
   86.7405    0.4803    8.3144 C   0  0  0  0  0  0
   85.7724    0.7452    7.2141 C   0  0  0  0  0  0
   84.9347    1.8533    7.0028 C   0  0  0  0  0  0
   84.1709    1.7401    5.9395 N   0  0  0  0  0  0
   84.4915    0.5541    5.4139 N   0  0  0  0  0  0
   83.7809    0.0751    4.2356 C   0  0  0  0  0  0
   85.4646   -0.0834    6.1377 C   0  0  0  0  0  0
   86.7999    1.3678    9.3515 N   0  0  0  0  0  0
   87.5907    1.0418   10.4226 C   0  0  0  0  0  0
   87.6193    1.8512   11.5721 C   0  0  0  0  0  0
   90.3578    2.6548   15.3544 C   0  0  0  0  0  0
   93.5271    4.0421   18.0307 H   0  0  0  0  0  0
   92.0155    3.5546   18.7919 H   0  0  0  0  0  0
   93.1773    2.3186   18.3012 H   0  0  0  0  0  0
   90.9903    1.4298   18.4195 H   0  0  0  0  0  0
   88.6021   -0.8837   19.9284 H   0  0  0  0  0  0
   89.4962    0.6105   19.8695 H   0  0  0  0  0  0
   90.2258   -0.8809   19.2524 H   0  0  0  0  0  0
   87.7664    0.5179   15.7624 H   0  0  0  0  0  0
   88.9905    4.3178   14.1823 H   0  0  0  0  0  0
   88.0047    3.9167   12.7337 H   0  0  0  0  0  0
   86.6972    5.2620   13.7979 H   0  0  0  0  0  0
   86.8012    3.9802   16.2009 H   0  0  0  0  0  0
   85.6378    3.1839   13.0300 H   0  0  0  0  0  0
   85.9703    2.3913   14.5835 H   0  0  0  0  0  0
   83.4436    2.5571   13.0269 H   0  0  0  0  0  0
   83.8991    1.6523   14.4960 H   0  0  0  0  0  0
   81.5425    1.9330   14.5810 H   0  0  0  0  0  0
   82.3430    2.8728   15.7846 H   0  0  0  0  0  0
   80.5325    4.2744   14.7824 H   0  0  0  0  0  0
   81.2721    4.0873   13.2075 H   0  0  0  0  0  0
   82.4734    5.4917   15.6488 H   0  0  0  0  0  0
   82.0059    6.2515   14.1486 H   0  0  0  0  0  0
   84.5370    5.8795   14.4107 H   0  0  0  0  0  0
   83.8951    5.0654   12.9462 H   0  0  0  0  0  0
   89.5691   -0.0826   13.5602 H   0  0  0  0  0  0
   89.3529   -1.6226   11.6515 H   0  0  0  0  0  0
   87.5158   -1.3511    7.4711 H   0  0  0  0  0  0
   84.8842    2.7263    7.6276 H   0  0  0  0  0  0
   84.1931   -0.8820    3.9141 H   0  0  0  0  0  0
   82.7300   -0.0534    4.4842 H   0  0  0  0  0  0
   83.8766    0.8074    3.4291 H   0  0  0  0  0  0
   85.8127   -1.0636    5.8557 H   0  0  0  0  0  0
   87.0378    2.7549   11.5120 H   0  0  0  0  0  0
   90.7861    3.3371   14.6363 H   0  0  0  0  0  0
   84.3543    3.8054   15.6078 H   0  0  0  0  0  0
  1  2  1  0  0  0
  1 38  1  0  0  0
  1 39  1  0  0  0
  1 40  1  0  0  0
  2  3  1  0  0  0
  3 37  1  0  0  0
  3  4  2  0  0  0
  4  5  1  0  0  0
  4 41  1  0  0  0
  5  6  1  0  0  0
  5  8  2  0  0  0
  6  7  1  0  0  0
  7 42  1  0  0  0
  7 43  1  0  0  0
  7 44  1  0  0  0
  8  9  1  0  0  0
  8 45  1  0  0  0
  9 10  1  0  0  0
  9 37  2  0  0  0
 10 11  1  0  0  0
 10 21  1  0  0  0
 11 12  1  0  0  0
 11 46  1  0  0  0
 11 47  1  0  0  0
 12 13  1  0  0  0
 12 14  1  0  0  0
 12 48  1  0  0  0
 13 49  1  0  0  0
 14 15  1  0  0  0
 14 50  1  0  0  0
 14 51  1  0  0  0
 15 20  1  0  0  0
 15 16  1  0  0  0
 15 72  1  0  0  0
 16 17  1  0  0  0
 16 52  1  0  0  0
 16 53  1  0  0  0
 17 18  1  0  0  0
 17 54  1  0  0  0
 17 55  1  0  0  0
 18 19  1  0  0  0
 18 56  1  0  0  0
 18 57  1  0  0  0
 19 20  1  0  0  0
 19 58  1  0  0  0
 19 59  1  0  0  0
 20 60  1  0  0  0
 20 61  1  0  0  0
 21 36  1  0  0  0
 21 22  2  0  0  0
 22 23  1  0  0  0
 22 62  1  0  0  0
 23 24  2  0  0  0
 23 63  1  0  0  0
 24 35  1  0  0  0
 24 25  1  0  0  0
 25 26  2  0  0  0
 26 27  1  0  0  0
 26 64  1  0  0  0
 27 28  1  0  0  0
 27 34  2  0  0  0
 28 33  2  0  0  0
 28 29  1  0  0  0
 29 30  2  0  0  0
 29 65  1  0  0  0
 30 31  1  0  0  0
 31 32  1  0  0  0
 31 33  1  0  0  0
 32 66  1  0  0  0
 32 67  1  0  0  0
 32 68  1  0  0  0
 33 69  1  0  0  0
 34 35  1  0  0  0
 35 36  2  0  0  0
 36 70  1  0  0  0
 37 71  1  0  0  0
M  CHG  1  15   1
M  END
> <i_epik_Tot_Q>
1

> <i_epik_Tot_abs_Q>
1

> <i_i_glide_confnum>
92

> <i_i_glide_lignum>
133

> <i_i_glide_posenum>
360

> <i_i_glide_rotatable_bonds>
10

> <i_lp_mmshare_version>
51139

> <i_m_source_file_index>
112

> <i_f3d_flags>
0

> <b_lp_Chiralities_Consistent>
1

> <r_epik_Charging_Adjusted_Penalty>
0.0179108

> <r_epik_Ionization_Penalty>
0.0102

> <r_epik_Ionization_Penalty_Charging>
0.0102

> <r_epik_Ionization_Penalty_Neutral>
0

> <r_epik_State_Penalty>
0.0078

> <r_i_docking_score>
-8.68059

> <r_i_glide_ecoul>
-15.4313

> <r_i_glide_eff_state_penalty>
0.00775307

> <r_i_glide_einternal>
27.7269

> <r_i_glide_emodel>
-83.3704

> <r_i_glide_energy>
-59.2876

> <r_i_glide_erotb>
0.483568

> <r_i_glide_esite>
-0.110938

> <r_i_glide_evdw>
-43.8563

> <r_i_glide_gscore>
-8.68834

> <r_i_glide_hbond>
-0.892061

> <r_i_glide_ligand_efficiency>
-0.23461

> <r_i_glide_ligand_efficiency_ln>
-1.88262

> <r_i_glide_ligand_efficiency_sa>
-0.781774

> <r_i_glide_lipo>
-3.4417

> <r_i_glide_metal>
-0

> <r_i_glide_rewards>
-0.219704

> <r_lp_Energy>
72.8295

> <r_lp_tautomer_probability>
1

> <s_epik_cmdline>
J2VwaWtfcHl0aG9uJywgJy1waHQnLCAnMi4wJywgJy1waCcsICc3LjQnLCAnLXRuJywgJzgnLCAnLW1hJywgJzIwMCcsICctaW1hZScsICc8aW5maWxlLm1hZT4nLCAnLW9tYWUnLCAnPG91dGZpbGUubWFlPic=

> <s_epik_input>
W0NIMl0xW0NIMl1bQ0gyXVtDSDJdW0NIMl1OMVtDSDJdW0NAQEhdKFtPSF0pW0NIMl1OKGMoW2NIXTIpW2NIXWMoT1tDSDNdKVtjSF1jMk9bQ0gzXSljKFtjSF1bY0hdMylbY0hdYyhjMzQpbmMoW2NIXW40KS1jNVtjSF1ubihbQ0gzXSlbY0hdNQ==

> <s_i_glide_gridfile>
Sries43413-001-gridgen

> <s_lp_Force_Field>
OPLS3e

> <s_lp_Variant>
lig111-1

> <s_m_source_file>
/home/user-home/yujie/0_PBCNetv2/data/0_0_high_sim/0_noncov/Sries43413/ligprep_input.csv

$$$$
