lig337
                    3D
 Schrodinger Suite 2023-4.
 70 74  0  0  1  0            999 V2000
   92.1697    3.2389   17.7440 C   0  0  0  0  0  0
   91.3949    3.5166   16.5832 O   0  0  0  0  0  0
   90.3607    2.6671   16.2414 C   0  0  0  0  0  0
   90.0241    1.5016   16.9473 C   0  0  0  0  0  0
   88.9725    0.6817   16.5151 C   0  0  0  0  0  0
   88.5721   -0.4803   17.1421 O   0  0  0  0  0  0
   89.3057   -0.9603   18.2603 C   0  0  0  0  0  0
   88.2698    1.0356   15.3663 C   0  0  0  0  0  0
   88.5686    2.2013   14.6602 C   0  0  0  0  0  0
   87.8515    2.5066   13.4792 N   0  0  0  0  0  0
   87.2406    3.8528   13.4583 C   0  0  0  0  0  0
   85.7007    3.9875   13.6359 C   0  0  2  0  0  0
   85.4505    5.0042   14.5831 O   0  0  0  0  0  0
   84.8909    2.7060   13.9793 C   0  0  0  0  0  0
   83.3398    2.8392   13.8567 N   0  3  0  0  0  0
   82.8766    3.3554   12.4723 C   0  0  0  0  0  0
   81.3380    3.3422   12.4294 C   0  0  0  0  0  0
   80.8172    4.1451   13.4839 O   0  0  0  0  0  0
   81.1539    3.6887   14.7913 C   0  0  0  0  0  0
   82.6798    3.6371   15.0082 C   0  0  0  0  0  0
   87.8746    1.7232   12.2910 C   0  0  0  0  0  0
   88.7281    0.6111   12.2105 C   0  0  0  0  0  0
   88.7671   -0.2139   11.0925 C   0  0  0  0  0  0
   87.9449    0.0646    9.9874 C   0  0  0  0  0  0
   87.9795   -0.7646    8.9109 N   0  0  0  0  0  0
   87.1385   -0.4827    7.8900 C   0  0  0  0  0  0
   86.2597    0.5987    7.9239 C   0  0  0  0  0  0
   85.2967    0.8309    6.8111 C   0  0  0  0  0  0
   84.4300    1.9158    6.5909 C   0  0  0  0  0  0
   83.6870    1.7836    5.5145 N   0  0  0  0  0  0
   84.0510    0.6052    4.9988 N   0  0  0  0  0  0
   83.3916    0.1117    3.8038 C   0  0  0  0  0  0
   85.0302   -0.0061    5.7334 C   0  0  0  0  0  0
   86.2318    1.4565    8.9827 N   0  0  0  0  0  0
   87.0737    1.1943   10.0271 C   0  0  0  0  0  0
   87.0634    2.0186   11.1803 C   0  0  0  0  0  0
   89.6220    3.0063   15.1068 C   0  0  0  0  0  0
   92.8793    4.0501   17.9091 H   0  0  0  0  0  0
   91.5435    3.1614   18.6329 H   0  0  0  0  0  0
   92.7419    2.3174   17.6294 H   0  0  0  0  0  0
   90.5795    1.2325   17.8304 H   0  0  0  0  0  0
   88.8673   -1.9036   18.5827 H   0  0  0  0  0  0
   90.3427   -1.1606   17.9954 H   0  0  0  0  0  0
   89.2716   -0.2664   19.1022 H   0  0  0  0  0  0
   87.4698    0.3983   15.0236 H   0  0  0  0  0  0
   87.4888    4.3149   12.5025 H   0  0  0  0  0  0
   87.7321    4.5031   14.1847 H   0  0  0  0  0  0
   85.3527    4.3787   12.6827 H   0  0  0  0  0  0
   85.4367    4.6148   15.4731 H   0  0  0  0  0  0
   85.1054    2.3211   14.9788 H   0  0  0  0  0  0
   85.1210    1.9175   13.2689 H   0  0  0  0  0  0
   83.3262    2.7169   11.7102 H   0  0  0  0  0  0
   83.2374    4.3780   12.3578 H   0  0  0  0  0  0
   80.9865    3.7481   11.4809 H   0  0  0  0  0  0
   80.9499    2.3251   12.4953 H   0  0  0  0  0  0
   80.7080    4.3681   15.5184 H   0  0  0  0  0  0
   80.7008    2.7177   14.9809 H   0  0  0  0  0  0
   83.0944    4.6427   15.0352 H   0  0  0  0  0  0
   82.9276    3.1171   15.9349 H   0  0  0  0  0  0
   89.3847    0.3599   13.0301 H   0  0  0  0  0  0
   89.4284   -1.0695   11.0667 H   0  0  0  0  0  0
   87.1571   -1.1653    7.0537 H   0  0  0  0  0  0
   84.3451    2.7910    7.2196 H   0  0  0  0  0  0
   83.7886   -0.8680    3.5344 H   0  0  0  0  0  0
   82.3211    0.0208    3.9925 H   0  0  0  0  0  0
   83.5593    0.8075    2.9817 H   0  0  0  0  0  0
   85.4154   -0.9737    5.4463 H   0  0  0  0  0  0
   86.3898    2.8594   11.1840 H   0  0  0  0  0  0
   89.8938    3.8943   14.5561 H   0  0  0  0  0  0
   82.9611    1.9047   13.9430 H   0  0  0  0  0  0
  1  2  1  0  0  0
  1 38  1  0  0  0
  1 39  1  0  0  0
  1 40  1  0  0  0
  2  3  1  0  0  0
  3 37  1  0  0  0
  3  4  2  0  0  0
  4  5  1  0  0  0
  4 41  1  0  0  0
  5  6  1  0  0  0
  5  8  2  0  0  0
  6  7  1  0  0  0
  7 42  1  0  0  0
  7 43  1  0  0  0
  7 44  1  0  0  0
  8  9  1  0  0  0
  8 45  1  0  0  0
  9 10  1  0  0  0
  9 37  2  0  0  0
 10 11  1  0  0  0
 10 21  1  0  0  0
 11 12  1  0  0  0
 11 46  1  0  0  0
 11 47  1  0  0  0
 12 13  1  0  0  0
 12 14  1  0  0  0
 12 48  1  0  0  0
 13 49  1  0  0  0
 14 15  1  0  0  0
 14 50  1  0  0  0
 14 51  1  0  0  0
 15 20  1  0  0  0
 15 16  1  0  0  0
 15 70  1  0  0  0
 16 17  1  0  0  0
 16 52  1  0  0  0
 16 53  1  0  0  0
 17 18  1  0  0  0
 17 54  1  0  0  0
 17 55  1  0  0  0
 18 19  1  0  0  0
 19 20  1  0  0  0
 19 56  1  0  0  0
 19 57  1  0  0  0
 20 58  1  0  0  0
 20 59  1  0  0  0
 21 36  1  0  0  0
 21 22  2  0  0  0
 22 23  1  0  0  0
 22 60  1  0  0  0
 23 24  2  0  0  0
 23 61  1  0  0  0
 24 35  1  0  0  0
 24 25  1  0  0  0
 25 26  2  0  0  0
 26 27  1  0  0  0
 26 62  1  0  0  0
 27 28  1  0  0  0
 27 34  2  0  0  0
 28 33  2  0  0  0
 28 29  1  0  0  0
 29 30  2  0  0  0
 29 63  1  0  0  0
 30 31  1  0  0  0
 31 32  1  0  0  0
 31 33  1  0  0  0
 32 64  1  0  0  0
 32 65  1  0  0  0
 32 66  1  0  0  0
 33 67  1  0  0  0
 34 35  1  0  0  0
 35 36  2  0  0  0
 36 68  1  0  0  0
 37 69  1  0  0  0
M  CHG  1  15   1
M  END
> <i_epik_Tot_Q>
1

> <i_epik_Tot_abs_Q>
1

> <i_i_glide_confnum>
49

> <i_i_glide_lignum>
440

> <i_i_glide_posenum>
213

> <i_i_glide_rotatable_bonds>
10

> <i_lp_mmshare_version>
51139

> <i_m_source_file_index>
338

> <i_f3d_flags>
0

> <b_lp_Chiralities_Consistent>
1

> <r_epik_Charging_Adjusted_Penalty>
1.1135

> <r_epik_Ionization_Penalty>
0.5516

> <r_epik_Ionization_Penalty_Charging>
0.5515

> <r_epik_Ionization_Penalty_Neutral>
0

> <r_epik_State_Penalty>
0.562

> <r_i_docking_score>
-8.12047

> <r_i_glide_ecoul>
-12.8054

> <r_i_glide_eff_state_penalty>
0.561954

> <r_i_glide_einternal>
18.6227

> <r_i_glide_emodel>
-97.8161

> <r_i_glide_energy>
-70.075

> <r_i_glide_erotb>
0.480112

> <r_i_glide_esite>
-0.0631086

> <r_i_glide_evdw>
-57.2695

> <r_i_glide_gscore>
-8.68242

> <r_i_glide_hbond>
-0.654854

> <r_i_glide_ligand_efficiency>
-0.219472

> <r_i_glide_ligand_efficiency_ln>
-1.76114

> <r_i_glide_ligand_efficiency_sa>
-0.73133

> <r_i_glide_lipo>
-3.20844

> <r_i_glide_metal>
-0

> <r_i_glide_rewards>
-0.451841

> <r_lp_Energy>
64.5119

> <r_lp_tautomer_probability>
1

> <s_epik_cmdline>
J2VwaWtfcHl0aG9uJywgJy1waHQnLCAnMi4wJywgJy1waCcsICc3LjQnLCAnLXRuJywgJzgnLCAnLW1hJywgJzIwMCcsICctaW1hZScsICc8aW5maWxlLm1hZT4nLCAnLW9tYWUnLCAnPG91dGZpbGUubWFlPic=

> <s_epik_input>
W0NIMl0xW0NIMl1PW0NIMl1bQ0gyXU4xW0NIMl1bQ0BASF0oW09IXSlbQ0gyXU4oYyhbY0hdMilbY0hdYyhPW0NIM10pW2NIXWMyT1tDSDNdKWMoW2NIXVtjSF0zKVtjSF1jKGMzNCluYyhbY0hdbjQpLWM1W2NIXW5uKFtDSDNdKVtjSF01

> <s_i_glide_gridfile>
Sries43413-001-gridgen

> <s_lp_Force_Field>
OPLS3e

> <s_lp_Variant>
lig337-2

> <s_m_source_file>
/home/user-home/yujie/0_PBCNetv2/data/0_0_high_sim/0_noncov/Sries43408/ligprep_input.csv

$$$$
