lig75
                    3D
 Schrodinger Suite 2023-4.
 57 60  0  0  1  0            999 V2000
   92.4561    2.8055   18.1693 C   0  0  0  0  0  0
   91.7762    3.0499   16.9516 O   0  0  0  0  0  0
   90.6977    2.2534   16.6258 C   0  0  0  0  0  0
   90.2932    1.1078   17.3270 C   0  0  0  0  0  0
   89.1814    0.3655   16.9099 C   0  0  0  0  0  0
   88.7439   -0.7971   17.5102 O   0  0  0  0  0  0
   89.0143   -1.0963   18.8753 C   0  0  0  0  0  0
   88.4782    0.7809   15.7773 C   0  0  0  0  0  0
   88.8563    1.9260   15.0675 C   0  0  0  0  0  0
   88.1468    2.3132   13.9015 N   0  0  0  0  0  0
   87.8157    3.7627   13.8431 C   0  0  0  0  0  0
   86.7890    4.2982   14.8426 C   0  0  2  0  0  0
   85.4924    3.7914   14.5827 O   0  0  0  0  0  0
   86.7363    5.8464   14.9278 C   0  0  0  0  0  0
   86.3188    6.2836   16.2123 O   0  0  0  0  0  0
   88.1450    1.5569   12.6937 C   0  0  0  0  0  0
   88.9357    0.3991   12.5910 C   0  0  0  0  0  0
   88.9686   -0.3831   11.4413 C   0  0  0  0  0  0
   88.2112   -0.0141   10.3169 C   0  0  0  0  0  0
   88.2417   -0.7942    9.2019 N   0  0  0  0  0  0
   87.3810   -0.4794    8.2044 C   0  0  0  0  0  0
   86.5165    0.6144    8.2870 C   0  0  0  0  0  0
   85.5215    0.9128    7.2178 C   0  0  0  0  0  0
   85.2128    0.1642    6.0656 C   0  0  0  0  0  0
   84.2744    0.7029    5.3249 N   0  0  0  0  0  0
   83.9486    1.8294    5.9644 N   0  0  0  0  0  0
   82.8911    2.6724    5.4409 C   0  0  0  0  0  0
   84.6565    1.9919    7.1232 C   0  0  0  0  0  0
   86.5255    1.4423    9.3682 N   0  0  0  0  0  0
   87.3650    1.1305   10.3979 C   0  0  0  0  0  0
   87.3526    1.9095   11.5844 C   0  0  0  0  0  0
   89.9856    2.6334   15.4972 C   0  0  0  0  0  0
   93.1178    3.6411   18.3963 H   0  0  0  0  0  0
   91.7571    2.6968   18.9946 H   0  0  0  0  0  0
   93.0726    1.9111   18.1004 H   0  0  0  0  0  0
   90.8731    0.7738   18.1658 H   0  0  0  0  0  0
   89.5612   -2.0463   18.9612 H   0  0  0  0  0  0
   88.0397   -1.2395   19.3578 H   0  0  0  0  0  0
   89.5407   -0.3235   19.4341 H   0  0  0  0  0  0
   87.6220    0.2112   15.4490 H   0  0  0  0  0  0
   88.6951    4.3106   14.1829 H   0  0  0  0  0  0
   87.5404    4.1118   12.8505 H   0  0  0  0  0  0
   87.1430    3.9186   15.7880 H   0  0  0  0  0  0
   85.0935    3.6460   15.4575 H   0  0  0  0  0  0
   87.7237    6.2794   14.7625 H   0  0  0  0  0  0
   86.0798    6.2627   14.1594 H   0  0  0  0  0  0
   85.6016    5.7035   16.5115 H   0  0  0  0  0  0
   89.5502    0.0819   13.4201 H   0  0  0  0  0  0
   89.5540   -1.2814   11.4079 H   0  0  0  0  0  0
   87.3742   -1.1383    7.3495 H   0  0  0  0  0  0
   85.6642   -0.7778    5.7819 H   0  0  0  0  0  0
   82.9474    3.6640    5.8929 H   0  0  0  0  0  0
   82.9977    2.7686    4.3600 H   0  0  0  0  0  0
   81.9238    2.2251    5.6736 H   0  0  0  0  0  0
   84.4923    2.8500    7.7623 H   0  0  0  0  0  0
   86.6627    2.7374   11.6284 H   0  0  0  0  0  0
   90.3585    3.4782   14.9440 H   0  0  0  0  0  0
  1  2  1  0  0  0
  1 33  1  0  0  0
  1 34  1  0  0  0
  1 35  1  0  0  0
  2  3  1  0  0  0
  3 32  1  0  0  0
  3  4  2  0  0  0
  4  5  1  0  0  0
  4 36  1  0  0  0
  5  6  1  0  0  0
  5  8  2  0  0  0
  6  7  1  0  0  0
  7 37  1  0  0  0
  7 38  1  0  0  0
  7 39  1  0  0  0
  8  9  1  0  0  0
  8 40  1  0  0  0
  9 10  1  0  0  0
  9 32  2  0  0  0
 10 11  1  0  0  0
 10 16  1  0  0  0
 11 12  1  0  0  0
 11 41  1  0  0  0
 11 42  1  0  0  0
 12 13  1  0  0  0
 12 14  1  0  0  0
 12 43  1  0  0  0
 13 44  1  0  0  0
 14 15  1  0  0  0
 14 45  1  0  0  0
 14 46  1  0  0  0
 15 47  1  0  0  0
 16 31  1  0  0  0
 16 17  2  0  0  0
 17 18  1  0  0  0
 17 48  1  0  0  0
 18 19  2  0  0  0
 18 49  1  0  0  0
 19 30  1  0  0  0
 19 20  1  0  0  0
 20 21  2  0  0  0
 21 22  1  0  0  0
 21 50  1  0  0  0
 22 23  1  0  0  0
 22 29  2  0  0  0
 23 28  2  0  0  0
 23 24  1  0  0  0
 24 25  2  0  0  0
 24 51  1  0  0  0
 25 26  1  0  0  0
 26 27  1  0  0  0
 26 28  1  0  0  0
 27 52  1  0  0  0
 27 53  1  0  0  0
 27 54  1  0  0  0
 28 55  1  0  0  0
 29 30  1  0  0  0
 30 31  2  0  0  0
 31 56  1  0  0  0
 32 57  1  0  0  0
M  END
> <i_epik_Tot_Q>
0

> <i_epik_Tot_abs_Q>
0

> <i_i_glide_confnum>
61

> <i_i_glide_lignum>
89

> <i_i_glide_posenum>
97

> <i_i_glide_rotatable_bonds>
10

> <i_lp_mmshare_version>
51139

> <i_m_source_file_index>
76

> <i_f3d_flags>
0

> <b_lp_Chiralities_Consistent>
1

> <r_epik_Charging_Adjusted_Penalty>
0

> <r_epik_Ionization_Penalty>
0

> <r_epik_Ionization_Penalty_Charging>
0

> <r_epik_Ionization_Penalty_Neutral>
0

> <r_epik_State_Penalty>
-0

> <r_i_docking_score>
-8.5172

> <r_i_glide_ecoul>
-11.9457

> <r_i_glide_eff_state_penalty>
-0

> <r_i_glide_einternal>
17.7244

> <r_i_glide_emodel>
-84.2934

> <r_i_glide_energy>
-60.728

> <r_i_glide_erotb>
0.630396

> <r_i_glide_esite>
-0.0296913

> <r_i_glide_evdw>
-48.7823

> <r_i_glide_gscore>
-8.5172

> <r_i_glide_hbond>
-0.466896

> <r_i_glide_ligand_efficiency>
-0.266163

> <r_i_glide_ligand_efficiency_ln>
-1.90723

> <r_i_glide_ligand_efficiency_sa>
-0.845013

> <r_i_glide_lipo>
-3.38976

> <r_i_glide_metal>
-0

> <r_i_glide_rewards>
-1.03028

> <r_lp_Energy>
58.6543

> <r_lp_tautomer_probability>
1

> <s_epik_cmdline>
J2VwaWtfcHl0aG9uJywgJy1waHQnLCAnMi4wJywgJy1waCcsICc3LjQnLCAnLXRuJywgJzgnLCAnLW1hJywgJzIwMCcsICctaW1hZScsICc8aW5maWxlLm1hZT4nLCAnLW9tYWUnLCAnPG91dGZpbGUubWFlPic=

> <s_epik_input>
W0NIM11PYzFbY0hdYyhPW0NIM10pW2NIXWMoW2NIXTEpTihbQ0gyXVtDQEhdKFtPSF0pW0NIMl1bT0hdKWMoW2NIXVtjSF0yKVtjSF1jKGMyMyluYyhbY0hdbjMpLWM0W2NIXW5uKFtDSDNdKVtjSF00

> <s_i_glide_gridfile>
Sries43413-001-gridgen

> <s_lp_Force_Field>
OPLS3e

> <s_lp_Variant>
lig75-1

> <s_m_source_file>
/home/user-home/yujie/0_PBCNetv2/data/0_0_high_sim/0_noncov/Sries43408/ligprep_input.csv

$$$$
