lig222
                    3D
 Schrodinger Suite 2024-1.
 59 62  0  0  1  0            999 V2000
   88.9792   -0.8435   18.8576 C   0  0  0  0  0  0
   88.3967   -0.5118   17.6053 O   0  0  0  0  0  0
   88.9965    0.4286   16.8016 C   0  0  0  0  0  0
   90.1233    1.1771   17.1694 C   0  0  0  0  0  0
   90.6550    2.1379   16.3005 C   0  0  0  0  0  0
   91.7443    2.9401   16.5773 O   0  0  0  0  0  0
   92.3606    2.8555   17.8566 C   0  0  0  0  0  0
   90.0516    2.3195   15.0603 C   0  0  0  0  0  0
   88.9066    1.6027   14.6808 C   0  0  0  0  0  0
   88.1987    1.9114   13.4946 N   0  0  0  0  0  0
   87.9212    3.3493   13.3752 C   0  0  0  0  0  0
   86.6508    3.9084   14.0604 C   0  0  2  0  0  0
   86.9752    4.3187   15.3805 O   0  0  0  0  0  0
   85.4188    2.9779   14.0283 C   0  0  0  0  0  0
   84.1815    3.6967   14.5828 N   0  3  0  0  0  0
   88.0828    1.1694   12.2813 C   0  0  0  0  0  0
   88.8754    0.0400   12.0579 C   0  0  0  0  0  0
   88.8484   -0.6372   10.8357 C   0  0  0  0  0  0
   87.9980   -0.2100    9.7940 C   0  0  0  0  0  0
   87.9726   -0.8823    8.6132 N   0  0  0  0  0  0
   87.0817   -0.4806    7.6785 C   0  0  0  0  0  0
   86.2094    0.5846    7.8988 C   0  0  0  0  0  0
   85.1749    0.9746    6.8979 C   0  0  0  0  0  0
   84.8350    0.3286    5.6933 C   0  0  0  0  0  0
   83.8585    0.9131    5.0377 N   0  0  0  0  0  0
   83.5425    1.9721    5.7887 N   0  0  0  0  0  0
   82.4531    2.8408    5.3812 C   0  0  0  0  0  0
   84.2947    2.0472    6.9303 C   0  0  0  0  0  0
   86.2505    1.2998    9.0567 N   0  0  0  0  0  0
   87.1437    0.9049   10.0112 C   0  0  0  0  0  0
   87.2026    1.5721   11.2516 C   0  0  0  0  0  0
   88.4051    0.6448   15.5571 C   0  0  0  0  0  0
   88.3477   -1.5963   19.3243 H   0  0  0  0  0  0
   89.9756   -1.2699   18.7380 H   0  0  0  0  0  0
   89.0255    0.0148   19.5294 H   0  0  0  0  0  0
   90.5797    1.0204   18.1344 H   0  0  0  0  0  0
   93.0894    3.6601   17.9580 H   0  0  0  0  0  0
   92.8950    1.9123   17.9761 H   0  0  0  0  0  0
   91.6384    2.9647   18.6662 H   0  0  0  0  0  0
   90.4916    3.0472   14.3957 H   0  0  0  0  0  0
   88.7517    3.9163   13.7856 H   0  0  0  0  0  0
   87.9319    3.5621   12.3139 H   0  0  0  0  0  0
   86.4040    4.8237   13.5215 H   0  0  0  0  0  0
   86.7417    3.6104   16.0214 H   0  0  0  0  0  0
   85.1171    2.6948   13.0215 H   0  0  0  0  0  0
   85.5457    2.0822   14.6422 H   0  0  0  0  0  0
   83.3717    3.0993   14.5444 H   0  0  0  0  0  0
   84.3390    3.9195   15.5728 H   0  0  0  0  0  0
   89.5516   -0.3005   12.8285 H   0  0  0  0  0  0
   89.4903   -1.4878   10.6635 H   0  0  0  0  0  0
   87.0685   -1.0429    6.7581 H   0  0  0  0  0  0
   85.2868   -0.5745    5.3084 H   0  0  0  0  0  0
   82.5222    3.7946    5.9084 H   0  0  0  0  0  0
   82.5065    3.0269    4.3064 H   0  0  0  0  0  0
   81.5020    2.3613    5.6187 H   0  0  0  0  0  0
   84.1448    2.8451    7.6439 H   0  0  0  0  0  0
   86.5329    2.4061   11.3721 H   0  0  0  0  0  0
   87.5287    0.0796   15.2842 H   0  0  0  0  0  0
   83.9929    4.5551   14.0927 H   0  0  0  0  0  0
  1  2  1  0  0  0
  1 33  1  0  0  0
  1 34  1  0  0  0
  1 35  1  0  0  0
  2  3  1  0  0  0
  3 32  1  0  0  0
  3  4  2  0  0  0
  4  5  1  0  0  0
  4 36  1  0  0  0
  5  6  1  0  0  0
  5  8  2  0  0  0
  6  7  1  0  0  0
  7 37  1  0  0  0
  7 38  1  0  0  0
  7 39  1  0  0  0
  8  9  1  0  0  0
  8 40  1  0  0  0
  9 10  1  0  0  0
  9 32  2  0  0  0
 10 11  1  0  0  0
 10 16  1  0  0  0
 11 12  1  0  0  0
 11 41  1  0  0  0
 11 42  1  0  0  0
 12 13  1  0  0  0
 12 14  1  0  0  0
 12 43  1  0  0  0
 13 44  1  0  0  0
 14 15  1  0  0  0
 14 45  1  0  0  0
 14 46  1  0  0  0
 15 47  1  0  0  0
 15 48  1  0  0  0
 15 59  1  0  0  0
 16 31  1  0  0  0
 16 17  2  0  0  0
 17 18  1  0  0  0
 17 49  1  0  0  0
 18 19  2  0  0  0
 18 50  1  0  0  0
 19 30  1  0  0  0
 19 20  1  0  0  0
 20 21  2  0  0  0
 21 22  1  0  0  0
 21 51  1  0  0  0
 22 23  1  0  0  0
 22 29  2  0  0  0
 23 28  2  0  0  0
 23 24  1  0  0  0
 24 25  2  0  0  0
 24 52  1  0  0  0
 25 26  1  0  0  0
 26 27  1  0  0  0
 26 28  1  0  0  0
 27 53  1  0  0  0
 27 54  1  0  0  0
 27 55  1  0  0  0
 28 56  1  0  0  0
 29 30  1  0  0  0
 30 31  2  0  0  0
 31 57  1  0  0  0
 32 58  1  0  0  0
M  CHG  1  15   1
M  END
> <Tot Q>
1

> <Source File Index>
13

> <i_f3d_flags>
0

> <subgroup collapsed>
0

> <Ionization Penalty>
0.0219

> <State Penalty>
0.0176

> <docking score>
-9.63931

> <glide emodel>
-94.2403

> <glide gscore>
-9.6569

> <tautomer probability>
1

> <Source File>
Sries43408_dock_SP_confgen_100_lib.maegz

> <Source Path>
C:\Users\yujie\Desktop\two_s\data

> <entry id>
43956

> <subgroup title>
Sries43408_dock_SP_confgen_100_lib

> <subgroupid>
Sries43408_dock_SP_confgen_100_lib

$$$$
