lig107
                    3D
 Schrodinger Suite 2023-4.
 62 65  0  0  1  0            999 V2000
   84.0149    6.5524   15.1374 C   0  0  0  0  0  0
   84.8874    5.2966   14.9826 N   0  3  0  0  0  0
   84.5727    4.4886   13.7100 C   0  0  0  0  0  0
   85.4829    3.2510   13.5787 C   0  0  2  0  0  0
   85.1597    2.3168   14.5826 O   0  0  0  0  0  0
   87.0001    3.5972   13.5318 C   0  0  0  0  0  0
   87.9313    2.4594   13.3794 N   0  0  0  0  0  0
   88.6605    2.1719   14.5556 C   0  0  0  0  0  0
   89.7380    2.9732   14.9410 C   0  0  0  0  0  0
   90.4809    2.6810   16.0886 C   0  0  0  0  0  0
   91.5447    3.5170   16.3675 O   0  0  0  0  0  0
   92.3319    3.2954   17.5347 C   0  0  0  0  0  0
   90.1181    1.5698   16.8675 C   0  0  0  0  0  0
   89.0382    0.7543   16.4955 C   0  0  0  0  0  0
   88.6030   -0.3504   17.2003 O   0  0  0  0  0  0
   89.3219   -0.7794   18.3491 C   0  0  0  0  0  0
   88.3330    1.0620   15.3342 C   0  0  0  0  0  0
   87.9429    1.6848   12.1865 C   0  0  0  0  0  0
   88.7423    0.5332   12.1200 C   0  0  0  0  0  0
   88.7593   -0.2918   11.0002 C   0  0  0  0  0  0
   87.9625    0.0239    9.8851 C   0  0  0  0  0  0
   87.9698   -0.8009    8.8049 N   0  0  0  0  0  0
   87.1429   -0.4834    7.7832 C   0  0  0  0  0  0
   86.2899    0.6160    7.8253 C   0  0  0  0  0  0
   85.2946    0.8467    6.7415 C   0  0  0  0  0  0
   84.4040    1.9185    6.5670 C   0  0  0  0  0  0
   83.6267    1.7912    5.5151 N   0  0  0  0  0  0
   83.9923    0.6274    4.9703 N   0  0  0  0  0  0
   83.2959    0.1389    3.7945 C   0  0  0  0  0  0
   85.0045    0.0200    5.6623 C   0  0  0  0  0  0
   86.3037    1.4801    8.8778 N   0  0  0  0  0  0
   87.1420    1.1908    9.9169 C   0  0  0  0  0  0
   87.1767    2.0266   11.0574 C   0  0  0  0  0  0
   84.3187    7.0209   16.0747 H   0  0  0  0  0  0
   84.1999    7.2030   14.2804 H   0  0  0  0  0  0
   82.9757    6.2197   15.1863 H   0  0  0  0  0  0
   84.7422    4.7193   15.8335 H   0  0  0  0  0  0
   84.7086    5.1783   12.8749 H   0  0  0  0  0  0
   83.5173    4.2132   13.7702 H   0  0  0  0  0  0
   85.1894    2.7519   12.6575 H   0  0  0  0  0  0
   85.5432    2.5466   15.4570 H   0  0  0  0  0  0
   87.2627    4.1742   14.4201 H   0  0  0  0  0  0
   87.1432    4.2783   12.6927 H   0  0  0  0  0  0
   90.0135    3.8242   14.3365 H   0  0  0  0  0  0
   93.1325    4.0360   17.5808 H   0  0  0  0  0  0
   91.7356    3.3891   18.4434 H   0  0  0  0  0  0
   92.8072    2.3159   17.5196 H   0  0  0  0  0  0
   90.6741    1.3417   17.7625 H   0  0  0  0  0  0
   88.8424   -1.6686   18.7590 H   0  0  0  0  0  0
   89.3371   -0.0166   19.1294 H   0  0  0  0  0  0
   90.3425   -1.0543   18.0898 H   0  0  0  0  0  0
   87.5027    0.4374   15.0415 H   0  0  0  0  0  0
   89.3640    0.2477   12.9556 H   0  0  0  0  0  0
   89.3768   -1.1786   10.9847 H   0  0  0  0  0  0
   87.1386   -1.1692    6.9492 H   0  0  0  0  0  0
   84.3266    2.7822    7.2119 H   0  0  0  0  0  0
   83.7320   -0.8049    3.4660 H   0  0  0  0  0  0
   82.2449   -0.0223    4.0379 H   0  0  0  0  0  0
   83.3769    0.8726    2.9918 H   0  0  0  0  0  0
   85.3934   -0.9382    5.3491 H   0  0  0  0  0  0
   86.5718    2.9171   11.0302 H   0  0  0  0  0  0
   85.8624    5.5573   14.9865 H   0  0  0  0  0  0
  1  2  1  0  0  0
  1 34  1  0  0  0
  1 35  1  0  0  0
  1 36  1  0  0  0
  2  3  1  0  0  0
  2 37  1  0  0  0
  2 62  1  0  0  0
  3  4  1  0  0  0
  3 38  1  0  0  0
  3 39  1  0  0  0
  4  5  1  0  0  0
  4  6  1  0  0  0
  4 40  1  0  0  0
  5 41  1  0  0  0
  6  7  1  0  0  0
  6 42  1  0  0  0
  6 43  1  0  0  0
  7  8  1  0  0  0
  7 18  1  0  0  0
  8 17  1  0  0  0
  8  9  2  0  0  0
  9 10  1  0  0  0
  9 44  1  0  0  0
 10 11  1  0  0  0
 10 13  2  0  0  0
 11 12  1  0  0  0
 12 45  1  0  0  0
 12 46  1  0  0  0
 12 47  1  0  0  0
 13 14  1  0  0  0
 13 48  1  0  0  0
 14 15  1  0  0  0
 14 17  2  0  0  0
 15 16  1  0  0  0
 16 49  1  0  0  0
 16 50  1  0  0  0
 16 51  1  0  0  0
 17 52  1  0  0  0
 18 33  1  0  0  0
 18 19  2  0  0  0
 19 20  1  0  0  0
 19 53  1  0  0  0
 20 21  2  0  0  0
 20 54  1  0  0  0
 21 32  1  0  0  0
 21 22  1  0  0  0
 22 23  2  0  0  0
 23 24  1  0  0  0
 23 55  1  0  0  0
 24 25  1  0  0  0
 24 31  2  0  0  0
 25 30  2  0  0  0
 25 26  1  0  0  0
 26 27  2  0  0  0
 26 56  1  0  0  0
 27 28  1  0  0  0
 28 29  1  0  0  0
 28 30  1  0  0  0
 29 57  1  0  0  0
 29 58  1  0  0  0
 29 59  1  0  0  0
 30 60  1  0  0  0
 31 32  1  0  0  0
 32 33  2  0  0  0
 33 61  1  0  0  0
M  CHG  1   2   1
M  END
> <i_epik_Tot_Q>
1

> <i_epik_Tot_abs_Q>
1

> <i_i_glide_confnum>
134

> <i_i_glide_lignum>
127

> <i_i_glide_posenum>
342

> <i_i_glide_rotatable_bonds>
10

> <i_lp_mmshare_version>
51139

> <i_m_source_file_index>
108

> <i_f3d_flags>
0

> <b_lp_Chiralities_Consistent>
1

> <r_epik_Charging_Adjusted_Penalty>
0.0261312

> <r_epik_Ionization_Penalty>
0.0147

> <r_epik_Ionization_Penalty_Charging>
0.0147

> <r_epik_Ionization_Penalty_Neutral>
0

> <r_epik_State_Penalty>
0.0115

> <r_i_docking_score>
-8.47659

> <r_i_glide_ecoul>
-15.2017

> <r_i_glide_eff_state_penalty>
0.0114753

> <r_i_glide_einternal>
18.3892

> <r_i_glide_emodel>
-93.863

> <r_i_glide_energy>
-67.7894

> <r_i_glide_erotb>
0.59508

> <r_i_glide_esite>
-0.105145

> <r_i_glide_evdw>
-52.5876

> <r_i_glide_gscore>
-8.48806

> <r_i_glide_hbond>
-0.915769

> <r_i_glide_ligand_efficiency>
-0.256866

> <r_i_glide_ligand_efficiency_ln>
-1.88515

> <r_i_glide_ligand_efficiency_sa>
-0.823907

> <r_i_glide_lipo>
-3.44046

> <r_i_glide_metal>
-0

> <r_i_glide_rewards>
0.28788

> <r_lp_Energy>
63.0259

> <r_lp_tautomer_probability>
1

> <s_epik_cmdline>
J2VwaWtfcHl0aG9uJywgJy1waHQnLCAnMi4wJywgJy1waCcsICc3LjQnLCAnLXRuJywgJzgnLCAnLW1hJywgJzIwMCcsICctaW1hZScsICc8aW5maWxlLm1hZT4nLCAnLW9tYWUnLCAnPG91dGZpbGUubWFlPic=

> <s_epik_input>
W0NIM11PYyhbY0hdMSlbY0hdYyhPW0NIM10pW2NIXWMxTihbQ0gyXVtDQEBIXShbT0hdKVtDSDJdW05IXVtDSDNdKWMoW2NIXVtjSF0yKVtjSF1jKGMyMyluYyhbY0hdbjMpLWM0W2NIXW5uKFtDSDNdKVtjSF00

> <s_i_glide_gridfile>
Sries43413-001-gridgen

> <s_lp_Force_Field>
OPLS3e

> <s_lp_Variant>
lig107-1

> <s_m_source_file>
/home/user-home/yujie/0_PBCNetv2/data/0_0_high_sim/0_noncov/Sries43408/ligprep_input.csv

$$$$
