lig122
                    3D
 Schrodinger Suite 2024-1.
 72 76  0  0  1  0            999 V2000
   89.3027   -0.9150   18.2458 C   0  0  0  0  0  0
   88.5878   -0.4525   17.1081 O   0  0  0  0  0  0
   89.0086    0.6927   16.4628 C   0  0  0  0  0  0
   90.0616    1.5110   16.8944 C   0  0  0  0  0  0
   90.4208    2.6598   16.1726 C   0  0  0  0  0  0
   91.4557    3.5052   16.5192 O   0  0  0  0  0  0
   92.2018    3.2477   17.7038 C   0  0  0  0  0  0
   89.7054    2.9823   15.0167 C   0  0  0  0  0  0
   88.6524    2.1778   14.5701 C   0  0  0  0  0  0
   87.9566    2.4838   13.3762 N   0  0  0  0  0  0
   87.1924    3.7524   13.4360 C   0  0  0  0  0  0
   85.7552    3.6725   14.0058 C   0  0  2  0  0  0
   84.9577    2.8505   13.1824 O   0  0  0  0  0  0
   85.1561    5.0963   14.1627 C   0  0  0  0  0  0
   83.8346    5.1342   14.9825 N   0  3  0  0  0  0
   82.5998    4.7426   14.1332 C   0  0  0  0  0  0
   81.3527    4.7537   15.0295 C   0  0  0  0  0  0
   81.1460    6.1023   15.7347 C   0  0  0  0  0  0
   82.4007    6.5077   16.5238 C   0  0  0  0  0  0
   83.6554    6.5282   15.6343 C   0  0  0  0  0  0
   87.9389    1.6753   12.2036 C   0  0  0  0  0  0
   88.7431    0.5238   12.1350 C   0  0  0  0  0  0
   88.7493   -0.3151   11.0227 C   0  0  0  0  0  0
   87.9486    0.0005    9.9077 C   0  0  0  0  0  0
   87.9670   -0.8128    8.8185 N   0  0  0  0  0  0
   87.1416   -0.4916    7.7956 C   0  0  0  0  0  0
   86.2754    0.5968    7.8464 C   0  0  0  0  0  0
   85.2889    0.8362    6.7566 C   0  0  0  0  0  0
   84.4091    1.9166    6.5751 C   0  0  0  0  0  0
   83.6348    1.7916    5.5209 N   0  0  0  0  0  0
   84.0019    0.6293    4.9727 N   0  0  0  0  0  0
   83.2958    0.1342    3.8050 C   0  0  0  0  0  0
   85.0007    0.0114    5.6751 C   0  0  0  0  0  0
   86.2722    1.4456    8.9110 N   0  0  0  0  0  0
   87.1132    1.1561    9.9481 C   0  0  0  0  0  0
   87.1339    1.9850   11.0938 C   0  0  0  0  0  0
   88.3257    1.0336   15.2977 C   0  0  0  0  0  0
   88.8509   -1.8452   18.5856 H   0  0  0  0  0  0
   90.3423   -1.1295   18.0001 H   0  0  0  0  0  0
   89.2639   -0.2019   19.0709 H   0  0  0  0  0  0
   90.6003    1.2544   17.7911 H   0  0  0  0  0  0
   92.9101    4.0602   17.8676 H   0  0  0  0  0  0
   92.7723    2.3209   17.6198 H   0  0  0  0  0  0
   91.5566    3.1900   18.5827 H   0  0  0  0  0  0
   89.9873    3.8579   14.4516 H   0  0  0  0  0  0
   87.7323    4.4464   14.0811 H   0  0  0  0  0  0
   87.1557    4.2430   12.4631 H   0  0  0  0  0  0
   85.8058    3.1998   14.9824 H   0  0  0  0  0  0
   85.4103    2.0049   13.1044 H   0  0  0  0  0  0
   85.8553    5.6928   14.7500 H   0  0  0  0  0  0
   84.9781    5.6062   13.2151 H   0  0  0  0  0  0
   82.5307    5.4585   13.3130 H   0  0  0  0  0  0
   82.7606    3.7464   13.7259 H   0  0  0  0  0  0
   80.4707    4.4920   14.4444 H   0  0  0  0  0  0
   81.4656    3.9731   15.7788 H   0  0  0  0  0  0
   80.2885    6.0408   16.4068 H   0  0  0  0  0  0
   80.9042    6.8719   15.0002 H   0  0  0  0  0  0
   82.5609    5.8105   17.3499 H   0  0  0  0  0  0
   82.2546    7.4875   16.9786 H   0  0  0  0  0  0
   84.5458    6.7227   16.2353 H   0  0  0  0  0  0
   83.5892    7.2627   14.8287 H   0  0  0  0  0  0
   89.3854    0.2545   12.9601 H   0  0  0  0  0  0
   89.3584   -1.2133   11.0061 H   0  0  0  0  0  0
   87.1434   -1.1685    6.9542 H   0  0  0  0  0  0
   84.3331    2.7809    7.2208 H   0  0  0  0  0  0
   83.8213   -0.7250    3.3860 H   0  0  0  0  0  0
   82.2900   -0.1697    4.0960 H   0  0  0  0  0  0
   83.2330    0.9191    3.0502 H   0  0  0  0  0  0
   85.3787   -0.9529    5.3678 H   0  0  0  0  0  0
   86.4846    2.8458   11.0814 H   0  0  0  0  0  0
   87.5175    0.4017   14.9630 H   0  0  0  0  0  0
   83.9413    4.4799   15.7644 H   0  0  0  0  0  0
  1  2  1  0  0  0
  1 38  1  0  0  0
  1 39  1  0  0  0
  1 40  1  0  0  0
  2  3  1  0  0  0
  3 37  1  0  0  0
  3  4  2  0  0  0
  4  5  1  0  0  0
  4 41  1  0  0  0
  5  6  1  0  0  0
  5  8  2  0  0  0
  6  7  1  0  0  0
  7 42  1  0  0  0
  7 43  1  0  0  0
  7 44  1  0  0  0
  8  9  1  0  0  0
  8 45  1  0  0  0
  9 10  1  0  0  0
  9 37  2  0  0  0
 10 11  1  0  0  0
 10 21  1  0  0  0
 11 12  1  0  0  0
 11 46  1  0  0  0
 11 47  1  0  0  0
 12 13  1  0  0  0
 12 14  1  0  0  0
 12 48  1  0  0  0
 13 49  1  0  0  0
 14 15  1  0  0  0
 14 50  1  0  0  0
 14 51  1  0  0  0
 15 20  1  0  0  0
 15 16  1  0  0  0
 15 72  1  0  0  0
 16 17  1  0  0  0
 16 52  1  0  0  0
 16 53  1  0  0  0
 17 18  1  0  0  0
 17 54  1  0  0  0
 17 55  1  0  0  0
 18 19  1  0  0  0
 18 56  1  0  0  0
 18 57  1  0  0  0
 19 20  1  0  0  0
 19 58  1  0  0  0
 19 59  1  0  0  0
 20 60  1  0  0  0
 20 61  1  0  0  0
 21 36  1  0  0  0
 21 22  2  0  0  0
 22 23  1  0  0  0
 22 62  1  0  0  0
 23 24  2  0  0  0
 23 63  1  0  0  0
 24 35  1  0  0  0
 24 25  1  0  0  0
 25 26  2  0  0  0
 26 27  1  0  0  0
 26 64  1  0  0  0
 27 28  1  0  0  0
 27 34  2  0  0  0
 28 33  2  0  0  0
 28 29  1  0  0  0
 29 30  2  0  0  0
 29 65  1  0  0  0
 30 31  1  0  0  0
 31 32  1  0  0  0
 31 33  1  0  0  0
 32 66  1  0  0  0
 32 67  1  0  0  0
 32 68  1  0  0  0
 33 69  1  0  0  0
 34 35  1  0  0  0
 35 36  2  0  0  0
 36 70  1  0  0  0
 37 71  1  0  0  0
M  CHG  1  15   1
M  END
> <Tot Q>
1

> <Source File Index>
1965

> <i_f3d_flags>
0

> <subgroup collapsed>
0

> <Ionization Penalty>
0.0102

> <State Penalty>
0.0078

> <docking score>
-7.88568

> <glide emodel>
-85.5947

> <glide gscore>
-7.89343

> <tautomer probability>
1

> <Source File>
Sries43408_dock_SP_confgen_100_lib.maegz

> <Source Path>
C:\Users\yujie\Desktop\two_s\data

> <entry id>
45908

> <subgroup title>
Sries43408_dock_SP_confgen_100_lib

> <subgroupid>
Sries43408_dock_SP_confgen_100_lib

$$$$
