Thrombin_7a
                    3D
 Schrodinger Suite 2020-3.
 57 59  0  0  1  0            999 V2000
   11.6276  -13.7985   21.8327 C   0  0  0  0  0  0
   12.2867  -12.4506   21.7716 C   0  0  0  0  0  0
   11.9002  -11.4386   22.6531 C   0  0  0  0  0  0
   12.5515  -10.2093   22.6219 C   0  0  0  0  0  0
   13.5910   -9.9970   21.7143 C   0  0  0  0  0  0
   14.3771   -8.7107   21.7640 C   0  0  0  0  0  0
   13.9545  -11.0021   20.8050 C   0  0  0  0  0  0
   15.0335  -10.7678   19.7558 C   0  0  0  0  0  0
   16.3785  -11.0227   20.2543 N   0  0  0  0  0  0
   16.8942  -12.2538   20.3142 C   0  0  0  0  0  0
   16.3385  -13.2508   19.8534 O   0  0  0  0  0  0
   18.2339  -12.3991   21.0541 C   0  0  2  0  0  0
   19.4160  -12.4627   20.0721 C   0  0  0  0  0  0
   20.3955  -13.4379   20.6953 C   0  0  0  0  0  0
   19.5040  -14.4291   21.4248 C   0  0  0  0  0  0
   18.3357  -13.6523   21.8349 N   0  0  0  0  0  0
   17.4135  -14.0097   22.7657 C   0  0  0  0  0  0
   16.4543  -13.2896   23.0555 O   0  0  0  0  0  0
   17.5718  -15.3728   23.5008 C   0  0  2  0  0  0
   16.2497  -16.0365   23.4986 N   0  0  0  0  0  0
   18.1222  -15.1929   24.9395 C   0  0  0  0  0  0
   19.5575  -14.6912   25.0533 C   0  0  0  0  0  0
   19.8345  -13.3118   25.1700 C   0  0  0  0  0  0
   21.1454  -12.8560   25.1735 C   0  0  0  0  0  0
   22.1954  -13.7543   25.0423 C   0  0  0  0  0  0
   21.9421  -15.1130   24.8984 C   0  0  0  0  0  0
   20.6363  -15.5867   24.8895 C   0  0  0  0  0  0
   13.2810  -12.2208   20.8260 C   0  0  0  0  0  0
   15.5655  -15.4202   23.9339 H   0  0  0  0  0  0
   15.9217  -16.1681   22.5522 H   0  0  0  0  0  0
   11.4888  -14.2248   20.8388 H   0  0  0  0  0  0
   12.2185  -14.4870   22.4387 H   0  0  0  0  0  0
   10.6362  -13.6628   22.2533 H   0  0  0  0  0  0
   11.1142  -11.6114   23.3756 H   0  0  0  0  0  0
   12.2691   -9.4412   23.3269 H   0  0  0  0  0  0
   14.1089   -8.0648   22.6012 H   0  0  0  0  0  0
   15.4249   -8.9844   21.8509 H   0  0  0  0  0  0
   14.2976   -8.1864   20.8178 H   0  0  0  0  0  0
   14.9876   -9.7307   19.4552 H   0  0  0  0  0  0
   14.8210  -11.3544   18.8575 H   0  0  0  0  0  0
   16.8703  -10.2536   20.6910 H   0  0  0  0  0  0
   18.3741  -11.5696   21.7501 H   0  0  0  0  0  0
   19.8657  -11.4844   19.8974 H   0  0  0  0  0  0
   19.0973  -12.8471   19.1026 H   0  0  0  0  0  0
   21.0272  -12.9163   21.4159 H   0  0  0  0  0  0
   21.0344  -13.9179   19.9575 H   0  0  0  0  0  0
   20.0443  -14.8836   22.2530 H   0  0  0  0  0  0
   19.1760  -15.2205   20.7492 H   0  0  0  0  0  0
   18.2476  -16.0328   22.9587 H   0  0  0  0  0  0
   18.0725  -16.1524   25.4565 H   0  0  0  0  0  0
   17.4720  -14.5289   25.5123 H   0  0  0  0  0  0
   19.0341  -12.5980   25.2676 H   0  0  0  0  0  0
   21.3472  -11.7991   25.2787 H   0  0  0  0  0  0
   23.2147  -13.3961   25.0522 H   0  0  0  0  0  0
   22.7663  -15.8028   24.7913 H   0  0  0  0  0  0
   20.4499  -16.6430   24.7591 H   0  0  0  0  0  0
   13.5617  -13.0050   20.1370 H   0  0  0  0  0  0
  1  2  1  0  0  0
  1 31  1  0  0  0
  1 32  1  0  0  0
  1 33  1  0  0  0
  2 28  1  0  0  0
  2  3  2  0  0  0
  3  4  1  0  0  0
  3 34  1  0  0  0
  4  5  2  0  0  0
  4 35  1  0  0  0
  5  6  1  0  0  0
  5  7  1  0  0  0
  6 36  1  0  0  0
  6 37  1  0  0  0
  6 38  1  0  0  0
  7  8  1  0  0  0
  7 28  2  0  0  0
  8  9  1  0  0  0
  8 39  1  0  0  0
  8 40  1  0  0  0
  9 10  1  0  0  0
  9 41  1  0  0  0
 10 11  2  0  0  0
 10 12  1  0  0  0
 12 16  1  0  0  0
 12 13  1  0  0  0
 12 42  1  0  0  0
 13 14  1  0  0  0
 13 43  1  0  0  0
 13 44  1  0  0  0
 14 15  1  0  0  0
 14 45  1  0  0  0
 14 46  1  0  0  0
 15 16  1  0  0  0
 15 47  1  0  0  0
 15 48  1  0  0  0
 16 17  1  0  0  0
 17 18  2  0  0  0
 17 19  1  0  0  0
 19 20  1  0  0  0
 19 21  1  0  0  0
 19 49  1  0  0  0
 20 29  1  0  0  0
 20 30  1  0  0  0
 21 22  1  0  0  0
 21 50  1  0  0  0
 21 51  1  0  0  0
 22 27  1  0  0  0
 22 23  2  0  0  0
 23 24  1  0  0  0
 23 52  1  0  0  0
 24 25  2  0  0  0
 24 53  1  0  0  0
 25 26  1  0  0  0
 25 54  1  0  0  0
 26 27  2  0  0  0
 26 55  1  0  0  0
 27 56  1  0  0  0
 28 57  1  0  0  0
M  END
> <s_m_source_file>
/home/user-home/yujie/0_PBCNetv2/data/FEP/Thrombin/inp_ligprep.csv

> <i_m_source_file_index>
1

> <i_lp_mmshare_version>
51139

> <i_f3d_flags>
0

> <s_epik_input>
W0NIM11jMVtjSF1bY0hdYyhbQ0gzXSljKFtjSF0xKVtDSDJdW05IXUMoPU8pW0NAQEhdMltDSDJdW0NIMl1bQ0gyXU4yQyg9TylbQ0BIXShbTkgyXSlbQ0gyXWMzW2NIXVtjSF1bY0hdW2NIXVtjSF0z

> <s_epik_cmdline>
J2VwaWtfcHl0aG9uJywgJy1waHQnLCAnMi4wJywgJy1waCcsICc3LjQnLCAnLXRuJywgJzgnLCAnLW1hJywgJzIwMCcsICctaW1hZScsICc8aW5maWxlLm1hZT4nLCAnLW9tYWUnLCAnPG91dGZpbGUubWFlPic=

> <r_epik_Ionization_Penalty>
  0.4406

> <r_epik_Ionization_Penalty_Charging>
  0.0000

> <r_epik_Ionization_Penalty_Neutral>
  0.4406

> <r_epik_State_Penalty>
  0.4427

> <r_epik_Charging_Adjusted_Penalty>
0.442674

> <i_epik_Tot_Q>
0

> <i_epik_Tot_abs_Q>
0

> <s_lp_Force_Field>
OPLS3e

> <r_lp_Energy>
34.4191

> <b_lp_Chiralities_Consistent>
1

> <s_lp_Variant>
Thrombin_7a-2

> <s_i_glide_gridfile>
Thrombin-001-gridgen

> <i_i_glide_lignum>
2

> <i_i_glide_rotatable_bonds>
8

> <r_i_docking_score>
-8.0045339875508

> <r_i_glide_ligand_efficiency>
-0.2858762138411

> <r_i_glide_ligand_efficiency_sa>
-0.868088557307237

> <r_i_glide_ligand_efficiency_ln>
-1.847681467657

> <r_i_glide_gscore>
-8.4472079875508

> <r_i_glide_lipo>
-4.31730795882425

> <r_i_glide_hbond>
-0.608

> <r_i_glide_metal>
-0

> <r_i_glide_rewards>
-1.50624499577566

> <r_i_glide_evdw>
-36.5891304016113

> <r_i_glide_ecoul>
-7.52454233169556

> <r_i_glide_erotb>
0.942482836884008

> <r_i_glide_esite>
0

> <r_i_glide_emodel>
-68.1234052746555

> <r_i_glide_energy>
-44.1136727333069

> <r_i_glide_einternal>
5.61222314834595

> <i_i_glide_confnum>
159

> <i_i_glide_posenum>
14

> <r_i_glide_eff_state_penalty>
0.442674

$$$$
