Thrombin_3b
                    3D
 Schrodinger Suite 2020-3.
 58 60  0  0  1  0            999 V2000
   12.2354   -8.1517   24.5052 C   0  0  0  0  0  0
   11.5658   -9.5192   24.2599 C   0  0  0  0  0  0
   12.0170  -10.3270   23.0475 C   0  0  0  0  0  0
   11.4349  -11.5821   22.8500 C   0  0  0  0  0  0
   11.8694  -12.4114   21.8193 C   0  0  0  0  0  0
   12.8940  -11.9896   20.9727 C   0  0  0  0  0  0
   13.4929  -10.7390   21.1562 C   0  0  0  0  0  0
   14.5866  -10.2630   20.2053 C   0  0  0  0  0  0
   15.9442  -10.5842   20.6536 N   0  0  0  0  0  0
   16.5661  -11.7556   20.4433 C   0  0  0  0  0  0
   16.0813  -12.6965   19.8117 O   0  0  0  0  0  0
   17.9906  -11.8850   21.0244 C   0  0  2  0  0  0
   19.0464  -11.6376   19.9308 C   0  0  0  0  0  0
   20.2322  -12.5039   20.3119 C   0  0  0  0  0  0
   19.5818  -13.7221   20.9525 C   0  0  0  0  0  0
   18.3388  -13.2264   21.5498 N   0  0  0  0  0  0
   17.6088  -13.8747   22.4929 C   0  0  0  0  0  0
   16.6315  -13.3826   23.0538 O   0  0  0  0  0  0
   18.0008  -15.3236   22.8768 C   0  0  2  0  0  0
   16.7070  -16.0769   22.7303 N   0  3  0  0  0  0
   18.5356  -15.4622   24.3263 C   0  0  0  0  0  0
   19.8016  -14.6791   24.6428 C   0  0  0  0  0  0
   19.7202  -13.3904   25.2123 C   0  0  0  0  0  0
   20.8724  -12.6449   25.4225 C   0  0  0  0  0  0
   22.1087  -13.1588   25.0536 C   0  0  0  0  0  0
   22.2048  -14.4129   24.4664 C   0  0  0  0  0  0
   21.0624  -15.1699   24.2425 C   0  0  0  0  0  0
   13.0311   -9.9005   22.1787 C   0  0  0  0  0  0
   16.5234  -16.2613   21.7545 H   0  0  0  0  0  0
   16.7475  -16.9413   23.2509 H   0  0  0  0  0  0
   12.0329   -7.7925   25.5084 H   0  0  0  0  0  0
   13.3183   -8.1815   24.3978 H   0  0  0  0  0  0
   11.8356   -7.3842   23.8535 H   0  0  0  0  0  0
   10.4795   -9.4108   24.2531 H   0  0  0  0  0  0
   11.7926  -10.1660   25.1006 H   0  0  0  0  0  0
   10.6507  -11.9284   23.5103 H   0  0  0  0  0  0
   11.4200  -13.3850   21.6858 H   0  0  0  0  0  0
   13.2302  -12.6413   20.1784 H   0  0  0  0  0  0
   14.5068   -9.1814   20.0915 H   0  0  0  0  0  0
   14.3979  -10.6754   19.2106 H   0  0  0  0  0  0
   16.4244   -9.8741   21.1973 H   0  0  0  0  0  0
   18.1301  -11.1738   21.8416 H   0  0  0  0  0  0
   19.3194  -10.5848   19.8549 H   0  0  0  0  0  0
   18.6731  -11.9512   18.9548 H   0  0  0  0  0  0
   20.8355  -11.9789   21.0526 H   0  0  0  0  0  0
   20.8809  -12.7522   19.4709 H   0  0  0  0  0  0
   20.2583  -14.1763   21.6766 H   0  0  0  0  0  0
   19.3356  -14.4681   20.1976 H   0  0  0  0  0  0
   18.6807  -15.7898   22.1626 H   0  0  0  0  0  0
   18.7479  -16.5123   24.5367 H   0  0  0  0  0  0
   17.7689  -15.1689   25.0480 H   0  0  0  0  0  0
   18.7613  -12.9853   25.5015 H   0  0  0  0  0  0
   20.8036  -11.6660   25.8773 H   0  0  0  0  0  0
   23.0068  -12.5844   25.2305 H   0  0  0  0  0  0
   23.1747  -14.7998   24.1889 H   0  0  0  0  0  0
   21.1462  -16.1373   23.7706 H   0  0  0  0  0  0
   13.4930   -8.9340   22.3089 H   0  0  0  0  0  0
   15.9715  -15.4876   23.1043 H   0  0  0  0  0  0
  1  2  1  0  0  0
  1 31  1  0  0  0
  1 32  1  0  0  0
  1 33  1  0  0  0
  2  3  1  0  0  0
  2 34  1  0  0  0
  2 35  1  0  0  0
  3 28  1  0  0  0
  3  4  2  0  0  0
  4  5  1  0  0  0
  4 36  1  0  0  0
  5  6  2  0  0  0
  5 37  1  0  0  0
  6  7  1  0  0  0
  6 38  1  0  0  0
  7  8  1  0  0  0
  7 28  2  0  0  0
  8  9  1  0  0  0
  8 39  1  0  0  0
  8 40  1  0  0  0
  9 10  1  0  0  0
  9 41  1  0  0  0
 10 11  2  0  0  0
 10 12  1  0  0  0
 12 16  1  0  0  0
 12 13  1  0  0  0
 12 42  1  0  0  0
 13 14  1  0  0  0
 13 43  1  0  0  0
 13 44  1  0  0  0
 14 15  1  0  0  0
 14 45  1  0  0  0
 14 46  1  0  0  0
 15 16  1  0  0  0
 15 47  1  0  0  0
 15 48  1  0  0  0
 16 17  1  0  0  0
 17 18  2  0  0  0
 17 19  1  0  0  0
 19 20  1  0  0  0
 19 21  1  0  0  0
 19 49  1  0  0  0
 20 29  1  0  0  0
 20 30  1  0  0  0
 20 58  1  0  0  0
 21 22  1  0  0  0
 21 50  1  0  0  0
 21 51  1  0  0  0
 22 27  1  0  0  0
 22 23  2  0  0  0
 23 24  1  0  0  0
 23 52  1  0  0  0
 24 25  2  0  0  0
 24 53  1  0  0  0
 25 26  1  0  0  0
 25 54  1  0  0  0
 26 27  2  0  0  0
 26 55  1  0  0  0
 27 56  1  0  0  0
 28 57  1  0  0  0
M  CHG  1  20   1
M  END
> <s_m_source_file>
/home/user-home/yujie/0_PBCNetv2/data/FEP/Thrombin/inp_ligprep.csv

> <i_m_source_file_index>
6

> <i_lp_mmshare_version>
51139

> <i_f3d_flags>
0

> <s_epik_input>
W0NIM11bQ0gyXWMxW2NIXVtjSF1bY0hdYyhbY0hdMSlbQ0gyXVtOSF1DKD1PKVtDQEBIXTJbQ0gyXVtDSDJdW0NIMl1OMkMoPU8pW0NASF0oW05IMl0pW0NIMl1jM1tjSF1bY0hdW2NIXVtjSF1bY0hdMw==

> <s_epik_cmdline>
J2VwaWtfcHl0aG9uJywgJy1waHQnLCAnMi4wJywgJy1waCcsICc3LjQnLCAnLXRuJywgJzgnLCAnLW1hJywgJzIwMCcsICctaW1hZScsICc8aW5maWxlLm1hZT4nLCAnLW9tYWUnLCAnPG91dGZpbGUubWFlPic=

> <r_epik_Ionization_Penalty>
  0.3822

> <r_epik_Ionization_Penalty_Charging>
  0.3822

> <r_epik_Ionization_Penalty_Neutral>
  0.0000

> <r_epik_State_Penalty>
  0.3803

> <r_epik_Charging_Adjusted_Penalty>
0.762511

> <i_epik_Tot_Q>
1

> <i_epik_Tot_abs_Q>
1

> <s_lp_Force_Field>
OPLS3e

> <r_lp_Energy>
37.1037

> <b_lp_Chiralities_Consistent>
1

> <s_lp_Variant>
Thrombin_3b-1

> <s_i_glide_gridfile>
Thrombin-001-gridgen

> <i_i_glide_lignum>
11

> <i_i_glide_rotatable_bonds>
9

> <r_i_docking_score>
-9.12549469398541

> <r_i_glide_ligand_efficiency>
-0.325910524785193

> <r_i_glide_ligand_efficiency_sa>
-0.989656304281681

> <r_i_glide_ligand_efficiency_ln>
-2.1064321115386

> <r_i_glide_gscore>
-9.50581969398541

> <r_i_glide_lipo>
-4.71631989569362

> <r_i_glide_hbond>
-0.498382688951872

> <r_i_glide_metal>
-0

> <r_i_glide_rewards>
-1.67263295577993

> <r_i_glide_evdw>
-49.9756813049316

> <r_i_glide_ecoul>
-7.05143022537231

> <r_i_glide_erotb>
0.938014445492441

> <r_i_glide_esite>
0

> <r_i_glide_emodel>
-84.5339532338863

> <r_i_glide_energy>
-57.027111530304

> <r_i_glide_einternal>
9.64904403686523

> <i_i_glide_confnum>
32

> <i_i_glide_posenum>
105

> <r_i_glide_eff_state_penalty>
0.380325

$$$$
