Thrombin_6b
                    3D
 Schrodinger Suite 2020-3.
 54 56  0  0  1  0            999 V2000
   12.6797  -12.7892   20.6463 C   0  0  0  0  0  0
   12.5654  -11.5708   21.5511 C   0  0  0  0  0  0
   11.6287  -11.5935   22.5922 C   0  0  0  0  0  0
   11.4946  -10.5057   23.4533 C   0  0  0  0  0  0
   12.3131   -9.3902   23.2931 C   0  0  0  0  0  0
   12.2344   -8.0786   24.4111 Cl  0  0  0  0  0  0
   13.2401   -9.3562   22.2536 C   0  0  0  0  0  0
   13.3863  -10.4383   21.3799 C   0  0  0  0  0  0
   14.3838  -10.3067   20.2297 C   0  0  0  0  0  0
   15.7553  -10.5840   20.6535 N   0  0  0  0  0  0
   16.4916  -11.6296   20.2522 C   0  0  0  0  0  0
   16.1315  -12.4497   19.4079 O   0  0  0  0  0  0
   17.8664  -11.7918   20.9323 C   0  0  2  0  0  0
   19.0210  -11.6733   19.9175 C   0  0  0  0  0  0
   20.0780  -12.6515   20.3964 C   0  0  0  0  0  0
   19.2572  -13.7734   21.0138 C   0  0  0  0  0  0
   18.0676  -13.1172   21.5619 N   0  0  0  0  0  0
   17.2464  -13.6197   22.5229 C   0  0  0  0  0  0
   16.2958  -12.9844   22.9937 O   0  0  0  0  0  0
   17.5191  -15.0572   23.0630 C   0  0  2  0  0  0
   16.2345  -15.7844   23.0539 N   0  0  0  0  0  0
   18.1318  -15.0497   24.4888 C   0  0  0  0  0  0
   19.5664  -14.5559   24.6134 C   0  0  0  0  0  0
   20.6384  -15.3775   24.2039 C   0  0  0  0  0  0
   21.9413  -14.8980   24.2532 C   0  0  0  0  0  0
   22.1943  -13.6025   24.6846 C   0  0  0  0  0  0
   21.1471  -12.7735   25.0665 C   0  0  0  0  0  0
   19.8395  -13.2360   25.0256 C   0  0  0  0  0  0
   16.2580  -16.5600   23.6987 H   0  0  0  0  0  0
   15.5046  -15.1667   23.4055 H   0  0  0  0  0  0
   12.0697  -13.6225   20.9982 H   0  0  0  0  0  0
   12.3790  -12.5464   19.6271 H   0  0  0  0  0  0
   13.7136  -13.1349   20.6139 H   0  0  0  0  0  0
   10.9926  -12.4555   22.7371 H   0  0  0  0  0  0
   10.7676  -10.5417   24.2532 H   0  0  0  0  0  0
   13.8739   -8.4885   22.1470 H   0  0  0  0  0  0
   14.3529   -9.2824   19.8542 H   0  0  0  0  0  0
   14.0716  -10.9195   19.3815 H   0  0  0  0  0  0
   16.1616   -9.9432   21.3236 H   0  0  0  0  0  0
   17.9947  -11.0390   21.7129 H   0  0  0  0  0  0
   19.4048  -10.6547   19.8536 H   0  0  0  0  0  0
   18.6968  -11.9636   18.9163 H   0  0  0  0  0  0
   20.6836  -12.1840   21.1731 H   0  0  0  0  0  0
   20.7495  -12.9888   19.6064 H   0  0  0  0  0  0
   19.8515  -14.3002   21.7584 H   0  0  0  0  0  0
   18.9424  -14.4895   20.2543 H   0  0  0  0  0  0
   18.1906  -15.6123   22.4091 H   0  0  0  0  0  0
   18.1213  -16.0669   24.8824 H   0  0  0  0  0  0
   17.4988  -14.4777   25.1704 H   0  0  0  0  0  0
   20.4506  -16.3834   23.8556 H   0  0  0  0  0  0
   22.7601  -15.5366   23.9551 H   0  0  0  0  0  0
   23.2105  -13.2384   24.7291 H   0  0  0  0  0  0
   21.3496  -11.7681   25.4011 H   0  0  0  0  0  0
   19.0345  -12.5876   25.3303 H   0  0  0  0  0  0
  1  2  1  0  0  0
  1 31  1  0  0  0
  1 32  1  0  0  0
  1 33  1  0  0  0
  2  8  1  0  0  0
  2  3  2  0  0  0
  3  4  1  0  0  0
  3 34  1  0  0  0
  4  5  2  0  0  0
  4 35  1  0  0  0
  5  6  1  0  0  0
  5  7  1  0  0  0
  7  8  2  0  0  0
  7 36  1  0  0  0
  8  9  1  0  0  0
  9 10  1  0  0  0
  9 37  1  0  0  0
  9 38  1  0  0  0
 10 11  1  0  0  0
 10 39  1  0  0  0
 11 12  2  0  0  0
 11 13  1  0  0  0
 13 17  1  0  0  0
 13 14  1  0  0  0
 13 40  1  0  0  0
 14 15  1  0  0  0
 14 41  1  0  0  0
 14 42  1  0  0  0
 15 16  1  0  0  0
 15 43  1  0  0  0
 15 44  1  0  0  0
 16 17  1  0  0  0
 16 45  1  0  0  0
 16 46  1  0  0  0
 17 18  1  0  0  0
 18 19  2  0  0  0
 18 20  1  0  0  0
 20 21  1  0  0  0
 20 22  1  0  0  0
 20 47  1  0  0  0
 21 29  1  0  0  0
 21 30  1  0  0  0
 22 23  1  0  0  0
 22 48  1  0  0  0
 22 49  1  0  0  0
 23 28  1  0  0  0
 23 24  2  0  0  0
 24 25  1  0  0  0
 24 50  1  0  0  0
 25 26  2  0  0  0
 25 51  1  0  0  0
 26 27  1  0  0  0
 26 52  1  0  0  0
 27 28  2  0  0  0
 27 53  1  0  0  0
 28 54  1  0  0  0
M  END
> <s_m_source_file>
/home/user-home/yujie/0_PBCNetv2/data/FEP/Thrombin/inp_ligprep.csv

> <i_m_source_file_index>
7

> <i_lp_mmshare_version>
51139

> <i_f3d_flags>
0

> <s_epik_input>
W0NIM11jMVtjSF1bY0hdYyhDbClbY0hdYzFbQ0gyXVtOSF1DKD1PKVtDQEBIXTJbQ0gyXVtDSDJdW0NIMl1OMkMoPU8pW0NASF0oW05IMl0pW0NIMl1jM1tjSF1bY0hdW2NIXVtjSF1bY0hdMw==

> <s_epik_cmdline>
J2VwaWtfcHl0aG9uJywgJy1waHQnLCAnMi4wJywgJy1waCcsICc3LjQnLCAnLXRuJywgJzgnLCAnLW1hJywgJzIwMCcsICctaW1hZScsICc8aW5maWxlLm1hZT4nLCAnLW9tYWUnLCAnPG91dGZpbGUubWFlPic=

> <r_epik_Ionization_Penalty>
  0.4406

> <r_epik_Ionization_Penalty_Charging>
  0.0000

> <r_epik_Ionization_Penalty_Neutral>
  0.4406

> <r_epik_State_Penalty>
  0.4427

> <r_epik_Charging_Adjusted_Penalty>
0.442674

> <i_epik_Tot_Q>
0

> <i_epik_Tot_abs_Q>
0

> <s_lp_Force_Field>
OPLS3e

> <r_lp_Energy>
38.5493

> <b_lp_Chiralities_Consistent>
1

> <s_lp_Variant>
Thrombin_6b-2

> <s_i_glide_gridfile>
Thrombin-001-gridgen

> <i_i_glide_lignum>
14

> <i_i_glide_rotatable_bonds>
8

> <r_i_docking_score>
-9.60283578128525

> <r_i_glide_ligand_efficiency>
-0.342958420760188

> <r_i_glide_ligand_efficiency_sa>
-1.04142375713553

> <r_i_glide_ligand_efficiency_ln>
-2.21661644983073

> <r_i_glide_gscore>
-10.0455097812853

> <r_i_glide_lipo>
-4.9073914699757

> <r_i_glide_hbond>
-0.798486830640488

> <r_i_glide_metal>
-0

> <r_i_glide_rewards>
-1.51597059314307

> <r_i_glide_evdw>
-49.3921203613281

> <r_i_glide_ecoul>
-8.07925987243652

> <r_i_glide_erotb>
0.85783411140589

> <r_i_glide_esite>
0

> <r_i_glide_emodel>
-89.4353383392902

> <r_i_glide_energy>
-57.4713802337646

> <r_i_glide_einternal>
5.7174243927002

> <i_i_glide_confnum>
79

> <i_i_glide_posenum>
264

> <r_i_glide_eff_state_penalty>
0.442674

$$$$
