Thrombin_1a
                    3D
 Schrodinger Suite 2020-3.
 51 53  0  0  1  0            999 V2000
   16.2346  -15.7845   23.0538 N   0  0  0  0  0  0
   17.5183  -15.0560   23.0813 C   0  0  2  0  0  0
   18.1271  -15.0649   24.5072 C   0  0  0  0  0  0
   19.5602  -14.5683   24.6362 C   0  0  0  0  0  0
   20.6315  -15.3903   24.2255 C   0  0  0  0  0  0
   21.9347  -14.9150   24.2842 C   0  0  0  0  0  0
   22.1927  -13.6231   24.7269 C   0  0  0  0  0  0
   21.1466  -12.7894   25.1009 C   0  0  0  0  0  0
   19.8348  -13.2459   25.0517 C   0  0  0  0  0  0
   17.2527  -13.6148   22.5494 C   0  0  0  0  0  0
   16.2963  -12.9843   23.0154 O   0  0  0  0  0  0
   18.0772  -13.1009   21.5986 N   0  0  0  0  0  0
   19.2625  -13.7582   21.0412 C   0  0  0  0  0  0
   20.0685  -12.6467   20.3831 C   0  0  0  0  0  0
   19.0019  -11.6611   19.9359 C   0  0  0  0  0  0
   17.8756  -11.7668   20.9820 C   0  0  1  0  0  0
   16.4925  -11.5730   20.3327 C   0  0  0  0  0  0
   16.0497  -12.4343   19.5706 O   0  0  0  0  0  0
   15.8407  -10.4416   20.6527 N   0  0  0  0  0  0
   14.4762  -10.1232   20.2328 C   0  0  0  0  0  0
   13.4484  -10.4684   21.2979 C   0  0  0  0  0  0
   12.8075  -11.7139   21.2936 C   0  0  0  0  0  0
   11.8340  -12.0044   22.2501 C   0  0  0  0  0  0
   11.4867  -11.0518   23.2091 C   0  0  0  0  0  0
   12.1280   -9.8137   23.2247 C   0  0  0  0  0  0
   11.8345   -8.9084   24.1846 F   0  0  0  0  0  0
   13.0925   -9.5160   22.2591 C   0  0  0  0  0  0
   15.5619  -15.3161   23.6588 H   0  0  0  0  0  0
   15.8236  -15.7758   22.1288 H   0  0  0  0  0  0
   18.1925  -15.5966   22.4198 H   0  0  0  0  0  0
   18.1154  -16.0904   24.8809 H   0  0  0  0  0  0
   17.4928  -14.5074   25.1989 H   0  0  0  0  0  0
   20.4379  -16.3916   23.8697 H   0  0  0  0  0  0
   22.7511  -15.5578   23.9896 H   0  0  0  0  0  0
   23.2114  -13.2664   24.7805 H   0  0  0  0  0  0
   21.3518  -11.7824   25.4358 H   0  0  0  0  0  0
   19.0357  -12.5850   25.3532 H   0  0  0  0  0  0
   19.8731  -14.2673   21.7869 H   0  0  0  0  0  0
   18.9378  -14.4891   20.2991 H   0  0  0  0  0  0
   20.7117  -12.1801   21.1277 H   0  0  0  0  0  0
   20.7036  -12.9970   19.5690 H   0  0  0  0  0  0
   19.3901  -10.6436   19.8597 H   0  0  0  0  0  0
   18.6427  -11.9565   18.9468 H   0  0  0  0  0  0
   18.0357  -11.0207   21.7650 H   0  0  0  0  0  0
   16.3009   -9.7875   21.2769 H   0  0  0  0  0  0
   14.4160   -9.0573   20.0014 H   0  0  0  0  0  0
   14.2101  -10.6359   19.3050 H   0  0  0  0  0  0
   13.0682  -12.4585   20.5538 H   0  0  0  0  0  0
   11.3457  -12.9698   22.2538 H   0  0  0  0  0  0
   10.7307  -11.2756   23.9513 H   0  0  0  0  0  0
   13.5831   -8.5552   22.2845 H   0  0  0  0  0  0
  1 28  1  0  0  0
  1 29  1  0  0  0
  1  2  1  0  0  0
  2  3  1  0  0  0
  2 10  1  0  0  0
  2 30  1  0  0  0
  3  4  1  0  0  0
  3 31  1  0  0  0
  3 32  1  0  0  0
  4  9  1  0  0  0
  4  5  2  0  0  0
  5  6  1  0  0  0
  5 33  1  0  0  0
  6  7  2  0  0  0
  6 34  1  0  0  0
  7  8  1  0  0  0
  7 35  1  0  0  0
  8  9  2  0  0  0
  8 36  1  0  0  0
  9 37  1  0  0  0
 10 11  2  0  0  0
 10 12  1  0  0  0
 12 16  1  0  0  0
 12 13  1  0  0  0
 13 14  1  0  0  0
 13 38  1  0  0  0
 13 39  1  0  0  0
 14 15  1  0  0  0
 14 40  1  0  0  0
 14 41  1  0  0  0
 15 16  1  0  0  0
 15 42  1  0  0  0
 15 43  1  0  0  0
 16 17  1  0  0  0
 16 44  1  0  0  0
 17 18  2  0  0  0
 17 19  1  0  0  0
 19 20  1  0  0  0
 19 45  1  0  0  0
 20 21  1  0  0  0
 20 46  1  0  0  0
 20 47  1  0  0  0
 21 27  1  0  0  0
 21 22  2  0  0  0
 22 23  1  0  0  0
 22 48  1  0  0  0
 23 24  2  0  0  0
 23 49  1  0  0  0
 24 25  1  0  0  0
 24 50  1  0  0  0
 25 26  1  0  0  0
 25 27  2  0  0  0
 27 51  1  0  0  0
M  END
> <s_m_source_file>
/home/user-home/yujie/0_PBCNetv2/data/FEP/Thrombin/inp_ligprep.csv

> <i_m_source_file_index>
11

> <i_lp_mmshare_version>
51139

> <i_f3d_flags>
0

> <s_epik_input>
W2NIXTFbY0hdW2NIXVtjSF1bY0hdYzFbQ0gyXVtDQEBIXShbTkgyXSlDKD1PKU4yW0NIMl1bQ0gyXVtDSDJdW0NASF0yQyg9TylbTkhdW0NIMl1jM1tjSF1bY0hdW2NIXWMoRilbY0hdMw==

> <s_epik_cmdline>
J2VwaWtfcHl0aG9uJywgJy1waHQnLCAnMi4wJywgJy1waCcsICc3LjQnLCAnLXRuJywgJzgnLCAnLW1hJywgJzIwMCcsICctaW1hZScsICc8aW5maWxlLm1hZT4nLCAnLW9tYWUnLCAnPG91dGZpbGUubWFlPic=

> <r_epik_Ionization_Penalty>
  0.4406

> <r_epik_Ionization_Penalty_Charging>
  0.0000

> <r_epik_Ionization_Penalty_Neutral>
  0.4406

> <r_epik_State_Penalty>
  0.4427

> <r_epik_Charging_Adjusted_Penalty>
0.442674

> <i_epik_Tot_Q>
0

> <i_epik_Tot_abs_Q>
0

> <s_lp_Force_Field>
OPLS3e

> <r_lp_Energy>
40.2953

> <b_lp_Chiralities_Consistent>
1

> <s_lp_Variant>
Thrombin_1a-2

> <s_i_glide_gridfile>
Thrombin-001-gridgen

> <i_i_glide_lignum>
22

> <i_i_glide_rotatable_bonds>
8

> <r_i_docking_score>
-9.61150388294742

> <r_i_glide_ligand_efficiency>
-0.355981625294349

> <r_i_glide_ligand_efficiency_sa>
-1.06794487470979

> <r_i_glide_ligand_efficiency_ln>
-2.23739964592448

> <r_i_glide_gscore>
-10.0541778829474

> <r_i_glide_lipo>
-4.41396733639319

> <r_i_glide_hbond>
-0.864

> <r_i_glide_metal>
-0

> <r_i_glide_rewards>
-2.04079137691187

> <r_i_glide_evdw>
-45.3245544433594

> <r_i_glide_ecoul>
-8.77884387969971

> <r_i_glide_erotb>
0.84763513448056

> <r_i_glide_esite>
0

> <r_i_glide_emodel>
-84.516918429121

> <r_i_glide_energy>
-54.1033983230591

> <r_i_glide_einternal>
4.60379219055176

> <i_i_glide_confnum>
43

> <i_i_glide_posenum>
222

> <r_i_glide_eff_state_penalty>
0.442674

$$$$
