A1_4
                    3D
 Schrodinger Suite 2024-1.
 36 39  0  0  1  0            999 V2000
   41.9379   -1.3475    7.8315 F   0  0  0  0  0  0
   42.3018   -0.1194    8.2569 C   0  0  0  0  0  0
   43.3144   -0.0050    9.2079 C   0  0  0  0  0  0
   43.7037    1.2622    9.6626 C   0  0  0  0  0  0
   43.0895    2.4358    9.1842 C   0  0  0  0  0  0
   43.4420    3.7100    9.6592 N   0  0  0  0  0  0
   43.9425    3.7087   11.0322 C   0  0  2  0  0  0
   44.2821    5.0842   11.6008 C   0  0  0  0  0  0
   44.4949    5.2506   12.9900 C   0  0  0  0  0  0
   44.8339    6.5174   13.5011 C   0  0  0  0  0  0
   44.9448    7.6045   12.6179 C   0  0  0  0  0  0
   44.7220    7.4179   11.2949 N   0  3  0  0  0  0
   44.4126    6.2111   10.7663 C   0  0  0  0  0  0
   45.0922    2.7018   11.2336 C   0  0  1  0  0  0
   44.8266    1.3206   10.6393 C   0  0  2  0  0  0
   46.1256    0.9292    9.9739 C   0  0  0  0  0  0
   47.0261    1.8965   10.0192 C   0  0  0  0  0  0
   46.4666    3.1105   10.6895 C   0  0  0  0  0  0
   42.0777    2.3165    8.2187 C   0  0  0  0  0  0
   41.4945    3.4506    7.7624 F   0  0  0  0  0  0
   41.6869    1.0380    7.7573 C   0  0  0  0  0  0
   43.8130   -0.8891    9.5735 H   0  0  0  0  0  0
   42.7108    4.3851    9.4547 H   0  0  0  0  0  0
   43.1089    3.3241   11.6054 H   0  0  0  0  0  0
   44.4105    4.4158   13.6728 H   0  0  0  0  0  0
   45.0369    6.6185   14.5637 H   0  0  0  0  0  0
   45.2261    8.5978   12.9382 H   0  0  0  0  0  0
   44.2800    6.1635    9.6945 H   0  0  0  0  0  0
   45.2224    2.5514   12.3064 H   0  0  0  0  0  0
   44.5213    0.6900   11.4669 H   0  0  0  0  0  0
   46.2908   -0.0352    9.5154 H   0  0  0  0  0  0
   48.0275    1.8463    9.6062 H   0  0  0  0  0  0
   46.3569    3.8786    9.9256 H   0  0  0  0  0  0
   47.1235    3.3964   11.5113 H   0  0  0  0  0  0
   40.9398    0.9147    6.9942 H   0  0  0  0  0  0
   44.8238    8.2060   10.6580 H   0  0  0  0  0  0
  1  2  1  0  0  0
  2 21  1  0  0  0
  2  3  2  0  0  0
  3  4  1  0  0  0
  3 22  1  0  0  0
  4 15  1  0  0  0
  4  5  2  0  0  0
  5  6  1  0  0  0
  5 19  1  0  0  0
  6  7  1  0  0  0
  6 23  1  0  0  0
  7  8  1  0  0  0
  7 14  1  0  0  0
  7 24  1  0  0  0
  8 13  1  0  0  0
  8  9  2  0  0  0
  9 10  1  0  0  0
  9 25  1  0  0  0
 10 11  2  0  0  0
 10 26  1  0  0  0
 11 12  1  0  0  0
 11 27  1  0  0  0
 12 13  2  0  0  0
 12 36  1  0  0  0
 13 28  1  0  0  0
 14 18  1  0  0  0
 14 15  1  0  0  0
 14 29  1  0  0  0
 15 16  1  0  0  0
 15 30  1  0  0  0
 16 17  2  0  0  0
 16 31  1  0  0  0
 17 18  1  0  0  0
 17 32  1  0  0  0
 18 33  1  0  0  0
 18 34  1  0  0  0
 19 20  1  0  0  0
 19 21  2  0  0  0
 21 35  1  0  0  0
M  CHG  1  12   1
M  END
> <Tot Q>
1

> <flags>
0

> <Source File Index>
2

> <subgroup collapsed>
0

> <Ionization Penalty>
1.5065

> <State Penalty>
1.5065

> <docking score>
-7.62417

> <glide emodel>
-53.3012

> <glide gscore>
-9.13067

> <Source File>
glide-dock_SP_2to7RAD_pv.maegz

> <Source Path>
C:\Users\yujie\Desktop\1b1\glide-dock_SP_2to7RAD

> <entry id>
115

> <job name>
glide-dock_SP_2to7RAD

> <subgroup title>
glide-dock_SP_2to7RAD_pv

> <subgroupid>
glide-dock_SP_2to7RAD_pv

$$$$
