p38_p38a_2p
                    3D
 Schrodinger Suite 2020-3.
 58 61  0  0  1  0            999 V2000
   27.7180   13.4793   30.0778 C   0  0  0  0  0  0
   26.8215   14.3984   31.4377 S   0  0  0  0  0  0
   27.5216   15.6691   31.6460 O   0  0  0  0  0  0
   26.6439   13.4735   32.5605 O   0  0  0  0  0  0
   25.1318   14.7979   30.6903 C   0  0  0  0  0  0
   24.2694   13.5481   30.4118 C   0  0  0  0  0  0
   23.8226   12.7950   31.6859 C   0  0  0  0  0  0
   22.5933   11.9862   31.4994 N   0  0  0  0  0  0
   21.4009   12.6692   31.5303 C   0  0  0  0  0  0
   21.3177   13.8909   31.6877 O   0  0  0  0  0  0
   20.1964   11.8565   31.3519 C   0  0  0  0  0  0
   19.0425   12.5825   31.4570 O   0  0  0  0  0  0
   17.7979   12.0324   31.2705 C   0  0  0  0  0  0
   17.1166   12.3173   30.0877 C   0  0  0  0  0  0
   15.8273   11.8281   29.8848 C   0  0  0  0  0  0
   15.1944   11.0975   30.8883 C   0  0  0  0  0  0
   13.9476   10.6241   30.6876 F   0  0  0  0  0  0
   15.8551   10.8426   32.0890 C   0  0  0  0  0  0
   17.1618   11.2956   32.2765 C   0  0  0  0  0  0
   17.8070   11.0227   33.4324 F   0  0  0  0  0  0
   20.2554   10.5209   31.1085 C   0  0  0  0  0  0
   21.5506    9.8262   31.0658 C   0  0  0  0  0  0
   21.7068    8.4562   30.8576 C   0  0  0  0  0  0
   22.9219    7.8488   30.8894 N   0  0  0  0  0  0
   23.9967    8.6425   31.1346 C   0  0  0  0  0  0
   25.2302    7.9795   31.2281 N   0  0  0  0  0  0
   26.4538    8.6578   31.6540 C   0  0  0  0  0  0
   27.4850    7.5862   32.0529 C   0  0  0  0  0  0
   28.8359    8.2428   32.3937 C   0  0  0  0  0  0
   29.2868    9.0254   31.2893 O   0  0  0  0  0  0
   28.4084   10.0846   30.9143 C   0  0  0  0  0  0
   27.0371    9.5109   30.5050 C   0  0  0  0  0  0
   23.9401    9.9910   31.3214 N   0  0  0  0  0  0
   22.7123   10.5799   31.2833 C   0  0  0  0  0  0
   28.6144   13.0488   30.5139 H   0  0  0  0  0  0
   27.0861   12.6890   29.6817 H   0  0  0  0  0  0
   28.0036   14.1743   29.2894 H   0  0  0  0  0  0
   25.3218   15.3525   29.7715 H   0  0  0  0  0  0
   24.6349   15.4744   31.3859 H   0  0  0  0  0  0
   24.7870   12.8619   29.7410 H   0  0  0  0  0  0
   23.3917   13.8832   29.8562 H   0  0  0  0  0  0
   23.6427   13.5202   32.4833 H   0  0  0  0  0  0
   24.6463   12.1918   32.0655 H   0  0  0  0  0  0
   17.5978   12.9072   29.3200 H   0  0  0  0  0  0
   15.3278   12.0052   28.9451 H   0  0  0  0  0  0
   15.3669   10.2691   32.8628 H   0  0  0  0  0  0
   19.3480    9.9511   30.9778 H   0  0  0  0  0  0
   20.8522    7.8249   30.6814 H   0  0  0  0  0  0
   25.2373    6.9654   31.2324 H   0  0  0  0  0  0
   26.2264    9.2688   32.5306 H   0  0  0  0  0  0
   27.1291    7.0125   32.9097 H   0  0  0  0  0  0
   27.6323    6.8700   31.2425 H   0  0  0  0  0  0
   28.7577    8.8613   33.2890 H   0  0  0  0  0  0
   29.5823    7.4766   32.6058 H   0  0  0  0  0  0
   28.3065   10.7998   31.7332 H   0  0  0  0  0  0
   28.8594   10.6249   30.0824 H   0  0  0  0  0  0
   27.1499    8.9105   29.6004 H   0  0  0  0  0  0
   26.3663   10.3309   30.2494 H   0  0  0  0  0  0
  1  2  1  0  0  0
  1 35  1  0  0  0
  1 36  1  0  0  0
  1 37  1  0  0  0
  2  3  2  0  0  0
  2  4  2  0  0  0
  2  5  1  0  0  0
  5  6  1  0  0  0
  5 38  1  0  0  0
  5 39  1  0  0  0
  6  7  1  0  0  0
  6 40  1  0  0  0
  6 41  1  0  0  0
  7  8  1  0  0  0
  7 42  1  0  0  0
  7 43  1  0  0  0
  8 34  1  0  0  0
  8  9  1  0  0  0
  9 10  2  0  0  0
  9 11  1  0  0  0
 11 12  1  0  0  0
 11 21  2  0  0  0
 12 13  1  0  0  0
 13 19  1  0  0  0
 13 14  2  0  0  0
 14 15  1  0  0  0
 14 44  1  0  0  0
 15 16  2  0  0  0
 15 45  1  0  0  0
 16 17  1  0  0  0
 16 18  1  0  0  0
 18 19  2  0  0  0
 18 46  1  0  0  0
 19 20  1  0  0  0
 21 22  1  0  0  0
 21 47  1  0  0  0
 22 34  2  0  0  0
 22 23  1  0  0  0
 23 24  2  0  0  0
 23 48  1  0  0  0
 24 25  1  0  0  0
 25 26  1  0  0  0
 25 33  2  0  0  0
 26 27  1  0  0  0
 26 49  1  0  0  0
 27 32  1  0  0  0
 27 28  1  0  0  0
 27 50  1  0  0  0
 28 29  1  0  0  0
 28 51  1  0  0  0
 28 52  1  0  0  0
 29 30  1  0  0  0
 29 53  1  0  0  0
 29 54  1  0  0  0
 30 31  1  0  0  0
 31 32  1  0  0  0
 31 55  1  0  0  0
 31 56  1  0  0  0
 32 57  1  0  0  0
 32 58  1  0  0  0
 33 34  1  0  0  0
M  END
> <s_m_source_file>
/home/user-home/yujie/0_PBCNetv2/data/FEP/p38/inp_ligprep.csv

> <i_m_source_file_index>
30

> <i_lp_mmshare_version>
51139

> <i_f3d_flags>
0

> <s_epik_input>
W0NIMl0xW0NIMl1PW0NIMl1bQ0gyXVtDSF0xW05IXWMobltjSF0yKW5jKGMyMyluKFtDSDJdW0NIMl1bQ0gyXVMoPU8pKD1PKVtDSDNdKWMoPU8pYyhbY0hdMylPYzRbY0hdW2NIXWMoRilbY0hdYzRG

> <s_epik_cmdline>
J2VwaWtfcHl0aG9uJywgJy1waHQnLCAnMi4wJywgJy1waCcsICc3LjQnLCAnLXRuJywgJzgnLCAnLW1hJywgJzIwMCcsICctaW1hZScsICc8aW5maWxlLm1hZT4nLCAnLW9tYWUnLCAnPG91dGZpbGUubWFlPic=

> <r_lp_tautomer_probability>
1

> <r_epik_Ionization_Penalty>
  0.0000

> <r_epik_Ionization_Penalty_Charging>
  0.0000

> <r_epik_Ionization_Penalty_Neutral>
  0.0000

> <r_epik_State_Penalty>
 -0.0000

> <r_epik_Charging_Adjusted_Penalty>
1.8013e-07

> <i_epik_Tot_Q>
0

> <i_epik_Tot_abs_Q>
0

> <s_epik_Chemistry_Notes>
This compound has an imine and may undergo hydrolysis.

> <s_lp_Force_Field>
OPLS3e

> <r_lp_Energy>
48.4318

> <b_lp_Chiralities_Consistent>
1

> <s_lp_Variant>
p38_p38a_2p-1

> <s_i_glide_gridfile>
p38-001-gridgen

> <i_i_glide_lignum>
31

> <i_i_glide_rotatable_bonds>
8

> <r_i_docking_score>
-9.97918318933638

> <r_i_glide_ligand_efficiency>
-0.293505387921658

> <r_i_glide_ligand_efficiency_sa>
-0.950843517331857

> <r_i_glide_ligand_efficiency_ln>
-2.2046814731318

> <r_i_glide_gscore>
-9.97918318933638

> <r_i_glide_lipo>
-3.38896993732635

> <r_i_glide_hbond>
-0.864

> <r_i_glide_metal>
-0

> <r_i_glide_rewards>
-2.15131032760014

> <r_i_glide_evdw>
-48.7870559692383

> <r_i_glide_ecoul>
-11.4425945281982

> <r_i_glide_erotb>
0.583345368240543

> <r_i_glide_esite>
-0.002506314958781

> <r_i_glide_emodel>
-90.2861145660637

> <r_i_glide_energy>
-60.2296504974365

> <r_i_glide_einternal>
8.14603900909424

> <i_i_glide_confnum>
190

> <i_i_glide_posenum>
43

> <r_i_glide_eff_state_penalty>
-0

$$$$
