p38_p38a_3fmk
                    3D
 Schrodinger Suite 2024-1.
 46 49  0  0  1  0            999 V2000
   26.5543    9.2101   33.1453 C   0  0  0  0  0  0
   26.5314    8.2924   31.9033 C   0  0  2  0  0  0
   27.4321    8.7459   30.7258 C   0  0  0  0  0  0
   27.1010   10.0748   30.2309 N   0  0  0  0  0  0
   27.6322   11.1843   30.7583 N   0  0  0  0  0  0
   27.0075   12.1052   30.0614 C   0  0  0  0  0  0
   26.1255   11.6600   29.1845 N   0  0  0  0  0  0
   26.1788   10.2850   29.2858 N   0  0  0  0  0  0
   25.2103    7.8250   31.4755 N   0  0  0  0  0  0
   24.0257    8.5635   31.3462 C   0  0  0  0  0  0
   22.9455    7.8250   30.9872 N   0  0  0  0  0  0
   21.7591    8.4778   30.8859 C   0  0  0  0  0  0
   21.6418    9.8436   31.1417 C   0  0  0  0  0  0
   20.3822   10.5929   31.0823 C   0  0  0  0  0  0
   20.3663   11.9353   31.3050 C   0  0  0  0  0  0
   19.2372   12.7069   31.3115 O   0  0  0  0  0  0
   17.9733   12.1816   31.2079 C   0  0  0  0  0  0
   17.4273   11.4232   32.2496 C   0  0  0  0  0  0
   16.1147   10.9594   32.1591 C   0  0  0  0  0  0
   15.3582   11.2157   31.0171 C   0  0  0  0  0  0
   14.1190   10.6956   30.8910 F   0  0  0  0  0  0
   15.8970   11.9832   29.9890 C   0  0  0  0  0  0
   17.1924   12.4830   30.0880 C   0  0  0  0  0  0
   17.6916   13.2482   29.0889 F   0  0  0  0  0  0
   21.5900   12.6981   31.5704 C   0  0  0  0  0  0
   21.5476   13.9278   31.6874 O   0  0  0  0  0  0
   22.7388   11.9519   31.6822 N   0  0  0  0  0  0
   23.9803   12.6690   32.0385 C   0  0  0  0  0  0
   22.8113   10.5419   31.4721 C   0  0  0  0  0  0
   24.0112    9.9031   31.5853 N   0  0  0  0  0  0
   27.5682    9.3088   33.5326 H   0  0  0  0  0  0
   26.2039   10.2202   32.9300 H   0  0  0  0  0  0
   25.9335    8.8040   33.9454 H   0  0  0  0  0  0
   26.9944    7.3687   32.2539 H   0  0  0  0  0  0
   27.3409    8.0476   29.8903 H   0  0  0  0  0  0
   28.4841    8.7360   31.0139 H   0  0  0  0  0  0
   27.2071   13.1592   30.1858 H   0  0  0  0  0  0
   25.1434    6.8315   31.2871 H   0  0  0  0  0  0
   20.9070    7.8820   30.6042 H   0  0  0  0  0  0
   19.4656   10.0585   30.8828 H   0  0  0  0  0  0
   18.0184   11.2012   33.1268 H   0  0  0  0  0  0
   15.7012   10.3571   32.9541 H   0  0  0  0  0  0
   15.3158   12.1830   29.1067 H   0  0  0  0  0  0
   23.8082   13.6515   32.4811 H   0  0  0  0  0  0
   24.5705   12.1034   32.7608 H   0  0  0  0  0  0
   24.5887   12.8142   31.1472 H   0  0  0  0  0  0
  1  2  1  0  0  0
  1 31  1  0  0  0
  1 32  1  0  0  0
  1 33  1  0  0  0
  2  3  1  0  0  0
  2  9  1  0  0  0
  2 34  1  0  0  0
  3  4  1  0  0  0
  3 35  1  0  0  0
  3 36  1  0  0  0
  4  8  1  0  0  0
  4  5  1  0  0  0
  5  6  2  0  0  0
  6  7  1  0  0  0
  6 37  1  0  0  0
  7  8  2  0  0  0
  9 10  1  0  0  0
  9 38  1  0  0  0
 10 30  1  0  0  0
 10 11  2  0  0  0
 11 12  1  0  0  0
 12 13  2  0  0  0
 12 39  1  0  0  0
 13 29  1  0  0  0
 13 14  1  0  0  0
 14 15  2  0  0  0
 14 40  1  0  0  0
 15 16  1  0  0  0
 15 25  1  0  0  0
 16 17  1  0  0  0
 17 23  1  0  0  0
 17 18  2  0  0  0
 18 19  1  0  0  0
 18 41  1  0  0  0
 19 20  2  0  0  0
 19 42  1  0  0  0
 20 21  1  0  0  0
 20 22  1  0  0  0
 22 23  2  0  0  0
 22 43  1  0  0  0
 23 24  1  0  0  0
 25 26  2  0  0  0
 25 27  1  0  0  0
 27 28  1  0  0  0
 27 29  1  0  0  0
 28 44  1  0  0  0
 28 45  1  0  0  0
 28 46  1  0  0  0
 29 30  2  0  0  0
M  END
> <Tot Q>
0

> <Source File Index>
165

> <i_f3d_flags>
0

> <subgroup collapsed>
0

> <Ionization Penalty>
0

> <State Penalty>
0

> <docking score>
-10.1634

> <glide emodel>
-84.5403

> <glide gscore>
-10.1634

> <tautomer probability>
1

> <Source File>
p38p38_dock_SP_confgen_100_lib.maegz

> <Source Path>
C:\Users\yujie\Desktop\FEPs\p38

> <entry id>
236

> <subgroup title>
p38p38_dock_SP_confgen_100_lib

> <subgroupid>
p38p38_dock_SP_confgen_100_lib

$$$$
