p38_p38a_2bb
                    3D
 Schrodinger Suite 2024-1.
 44 46  0  0  1  0            999 V2000
   24.1926   12.7095   31.3403 C   0  0  0  0  0  0
   22.9045   11.9902   31.2544 N   0  0  0  0  0  0
   21.7476   12.7364   31.2694 C   0  0  0  0  0  0
   21.7196   13.9711   31.3168 O   0  0  0  0  0  0
   20.5006   11.9621   31.2115 C   0  0  0  0  0  0
   19.3744   12.7311   31.3072 O   0  0  0  0  0  0
   18.0989   12.2212   31.2110 C   0  0  0  0  0  0
   17.3149   12.6248   30.1282 C   0  0  0  0  0  0
   15.9886   12.2069   30.0294 C   0  0  0  0  0  0
   15.4305   11.3979   31.0150 C   0  0  0  0  0  0
   14.1583   10.9619   30.8876 F   0  0  0  0  0  0
   16.1929   11.0248   32.1191 C   0  0  0  0  0  0
   17.5269   11.4246   32.2154 C   0  0  0  0  0  0
   18.2549   11.0448   33.2875 F   0  0  0  0  0  0
   20.4930   10.6117   31.0692 C   0  0  0  0  0  0
   21.7487    9.8594   31.0260 C   0  0  0  0  0  0
   21.8238    8.4762   30.8936 C   0  0  0  0  0  0
   23.0123    7.8247   30.8879 N   0  0  0  0  0  0
   24.1390    8.5693   31.0149 C   0  0  0  0  0  0
   25.3347    7.8363   30.9526 N   0  0  0  0  0  0
   26.6542    8.4046   31.2017 C   0  0  0  0  0  0
   27.3211    7.8306   32.4638 C   0  0  0  0  0  0
   26.7681    8.6793   34.0557 S   0  0  0  0  0  0
   27.4213   10.4312   33.8944 C   0  0  0  0  0  0
   27.4921    8.0424   35.1594 O   0  0  0  0  0  0
   25.3039    8.7368   34.0853 O   0  0  0  0  0  0
   24.1607    9.9262   31.1377 N   0  0  0  0  0  0
   22.9536   10.5674   31.1412 C   0  0  0  0  0  0
   24.0962   13.7934   31.4232 H   0  0  0  0  0  0
   24.7529   12.3678   32.2111 H   0  0  0  0  0  0
   24.7963   12.5051   30.4548 H   0  0  0  0  0  0
   17.7386   13.2634   29.3651 H   0  0  0  0  0  0
   15.3856   12.5061   29.1912 H   0  0  0  0  0  0
   15.7539   10.4063   32.8889 H   0  0  0  0  0  0
   19.5613   10.0695   31.0159 H   0  0  0  0  0  0
   20.9340    7.8699   30.8032 H   0  0  0  0  0  0
   25.2751    6.8258   30.8962 H   0  0  0  0  0  0
   26.6210    9.4936   31.2483 H   0  0  0  0  0  0
   27.2916    8.1917   30.3415 H   0  0  0  0  0  0
   28.4058    7.9019   32.4019 H   0  0  0  0  0  0
   27.0973    6.7712   32.5859 H   0  0  0  0  0  0
   27.3178   10.9226   34.8608 H   0  0  0  0  0  0
   26.8417   10.9543   33.1360 H   0  0  0  0  0  0
   28.4723   10.3883   33.6144 H   0  0  0  0  0  0
  1  2  1  0  0  0
  1 29  1  0  0  0
  1 30  1  0  0  0
  1 31  1  0  0  0
  2 28  1  0  0  0
  2  3  1  0  0  0
  3  4  2  0  0  0
  3  5  1  0  0  0
  5  6  1  0  0  0
  5 15  2  0  0  0
  6  7  1  0  0  0
  7 13  1  0  0  0
  7  8  2  0  0  0
  8  9  1  0  0  0
  8 32  1  0  0  0
  9 10  2  0  0  0
  9 33  1  0  0  0
 10 11  1  0  0  0
 10 12  1  0  0  0
 12 13  2  0  0  0
 12 34  1  0  0  0
 13 14  1  0  0  0
 15 16  1  0  0  0
 15 35  1  0  0  0
 16 28  2  0  0  0
 16 17  1  0  0  0
 17 18  2  0  0  0
 17 36  1  0  0  0
 18 19  1  0  0  0
 19 20  1  0  0  0
 19 27  2  0  0  0
 20 21  1  0  0  0
 20 37  1  0  0  0
 21 22  1  0  0  0
 21 38  1  0  0  0
 21 39  1  0  0  0
 22 23  1  0  0  0
 22 40  1  0  0  0
 22 41  1  0  0  0
 23 24  1  0  0  0
 23 25  2  0  0  0
 23 26  2  0  0  0
 24 42  1  0  0  0
 24 43  1  0  0  0
 24 44  1  0  0  0
 27 28  1  0  0  0
M  END
> <Tot Q>
0

> <Source File Index>
251

> <i_f3d_flags>
0

> <subgroup collapsed>
0

> <Ionization Penalty>
0

> <State Penalty>
0

> <docking score>
-9.97822

> <glide emodel>
-82.6958

> <glide gscore>
-9.97822

> <tautomer probability>
1

> <Source File>
p38p38_dock_SP_confgen_100_lib.maegz

> <Source Path>
C:\Users\yujie\Desktop\FEPs\p38

> <entry id>
322

> <subgroup title>
p38p38_dock_SP_confgen_100_lib

> <subgroupid>
p38p38_dock_SP_confgen_100_lib

$$$$
