p38_p38a_2r
                    3D
 Schrodinger Suite 2020-3.
 56 59  0  0  1  0            999 V2000
   25.6859   13.6298   33.2766 C   0  0  0  0  0  0
   24.4044   12.7829   33.1850 C   0  0  0  0  0  0
   24.6273   11.4148   33.8537 C   0  0  0  0  0  0
   23.4318   13.4237   33.9705 O   0  0  0  0  0  0
   23.9003   12.7064   31.7131 C   0  0  0  0  0  0
   22.6334   11.9510   31.4834 N   0  0  0  0  0  0
   21.4480   12.6458   31.5228 C   0  0  0  0  0  0
   21.3699   13.8629   31.6885 O   0  0  0  0  0  0
   20.2311   11.8493   31.3474 C   0  0  0  0  0  0
   19.0864   12.5900   31.4455 O   0  0  0  0  0  0
   17.8349   12.0489   31.2784 C   0  0  0  0  0  0
   17.1181   12.3747   30.1268 C   0  0  0  0  0  0
   15.8260   11.8839   29.9483 C   0  0  0  0  0  0
   15.2257   11.1116   30.9399 C   0  0  0  0  0  0
   13.9818   10.6221   30.7546 F   0  0  0  0  0  0
   15.9194   10.8260   32.1128 C   0  0  0  0  0  0
   17.2295   11.2748   32.2760 C   0  0  0  0  0  0
   17.9118   10.9504   33.3962 F   0  0  0  0  0  0
   20.2697   10.5124   31.1118 C   0  0  0  0  0  0
   21.5535    9.8052   31.0522 C   0  0  0  0  0  0
   21.6997    8.4347   30.8464 C   0  0  0  0  0  0
   22.9162    7.8243   30.8280 N   0  0  0  0  0  0
   24.0023    8.6246   30.9849 C   0  0  0  0  0  0
   25.2550    7.9922   30.9584 N   0  0  0  0  0  0
   26.4741    8.6937   31.3674 C   0  0  0  0  0  0
   27.6026    7.6709   31.5433 C   0  0  0  0  0  0
   28.9191    8.3980   31.9022 C   0  0  0  0  0  0
   29.2272    9.3973   30.9259 O   0  0  0  0  0  0
   28.2318   10.4050   30.7730 C   0  0  0  0  0  0
   26.9117    9.7528   30.3248 C   0  0  0  0  0  0
   23.9452    9.9652   31.1830 N   0  0  0  0  0  0
   22.7222   10.5509   31.2349 C   0  0  0  0  0  0
   26.5049   13.1615   32.7315 H   0  0  0  0  0  0
   25.5437   14.6260   32.8583 H   0  0  0  0  0  0
   26.0131   13.7568   34.3101 H   0  0  0  0  0  0
   25.4059   10.8528   33.3437 H   0  0  0  0  0  0
   24.9455   11.5274   34.8881 H   0  0  0  0  0  0
   23.7201   10.8093   33.8688 H   0  0  0  0  0  0
   23.6938   14.3553   34.0829 H   0  0  0  0  0  0
   24.6980   12.3132   31.0812 H   0  0  0  0  0  0
   23.7585   13.7280   31.3538 H   0  0  0  0  0  0
   17.5764   12.9921   29.3675 H   0  0  0  0  0  0
   15.2940   12.0977   29.0386 H   0  0  0  0  0  0
   15.4540   10.2269   32.8790 H   0  0  0  0  0  0
   19.3556    9.9541   30.9823 H   0  0  0  0  0  0
   20.8284    7.8200   30.7062 H   0  0  0  0  0  0
   25.2547    6.9838   31.0624 H   0  0  0  0  0  0
   26.2847    9.1519   32.3383 H   0  0  0  0  0  0
   27.3544    6.9532   32.3268 H   0  0  0  0  0  0
   27.7157    7.0934   30.6261 H   0  0  0  0  0  0
   28.8573    8.8516   32.8933 H   0  0  0  0  0  0
   29.7444    7.6869   31.9376 H   0  0  0  0  0  0
   28.1019   10.9565   31.7059 H   0  0  0  0  0  0
   28.5692   11.1282   30.0327 H   0  0  0  0  0  0
   27.0471    9.2895   29.3458 H   0  0  0  0  0  0
   26.1705   10.5366   30.1879 H   0  0  0  0  0  0
  1  2  1  0  0  0
  1 33  1  0  0  0
  1 34  1  0  0  0
  1 35  1  0  0  0
  2  3  1  0  0  0
  2  4  1  0  0  0
  2  5  1  0  0  0
  3 36  1  0  0  0
  3 37  1  0  0  0
  3 38  1  0  0  0
  4 39  1  0  0  0
  5  6  1  0  0  0
  5 40  1  0  0  0
  5 41  1  0  0  0
  6 32  1  0  0  0
  6  7  1  0  0  0
  7  8  2  0  0  0
  7  9  1  0  0  0
  9 10  1  0  0  0
  9 19  2  0  0  0
 10 11  1  0  0  0
 11 17  1  0  0  0
 11 12  2  0  0  0
 12 13  1  0  0  0
 12 42  1  0  0  0
 13 14  2  0  0  0
 13 43  1  0  0  0
 14 15  1  0  0  0
 14 16  1  0  0  0
 16 17  2  0  0  0
 16 44  1  0  0  0
 17 18  1  0  0  0
 19 20  1  0  0  0
 19 45  1  0  0  0
 20 32  2  0  0  0
 20 21  1  0  0  0
 21 22  2  0  0  0
 21 46  1  0  0  0
 22 23  1  0  0  0
 23 24  1  0  0  0
 23 31  2  0  0  0
 24 25  1  0  0  0
 24 47  1  0  0  0
 25 30  1  0  0  0
 25 26  1  0  0  0
 25 48  1  0  0  0
 26 27  1  0  0  0
 26 49  1  0  0  0
 26 50  1  0  0  0
 27 28  1  0  0  0
 27 51  1  0  0  0
 27 52  1  0  0  0
 28 29  1  0  0  0
 29 30  1  0  0  0
 29 53  1  0  0  0
 29 54  1  0  0  0
 30 55  1  0  0  0
 30 56  1  0  0  0
 31 32  1  0  0  0
M  END
> <s_m_source_file>
/home/user-home/yujie/0_PBCNetv2/data/FEP/p38/inp_ligprep.csv

> <i_m_source_file_index>
17

> <i_lp_mmshare_version>
51139

> <i_f3d_flags>
0

> <s_epik_input>
W0NIMl0xW0NIMl1PW0NIMl1bQ0gyXVtDSF0xW05IXWMobltjSF0yKW5jKGMyMyluKFtDSDJdQyhbQ0gzXSkoW0NIM10pW09IXSljKD1PKWMoW2NIXTMpT2M0W2NIXVtjSF1jKEYpW2NIXWM0Rg==

> <s_epik_cmdline>
J2VwaWtfcHl0aG9uJywgJy1waHQnLCAnMi4wJywgJy1waCcsICc3LjQnLCAnLXRuJywgJzgnLCAnLW1hJywgJzIwMCcsICctaW1hZScsICc8aW5maWxlLm1hZT4nLCAnLW9tYWUnLCAnPG91dGZpbGUubWFlPic=

> <r_lp_tautomer_probability>
1

> <r_epik_Ionization_Penalty>
  0.0000

> <r_epik_Ionization_Penalty_Charging>
  0.0000

> <r_epik_Ionization_Penalty_Neutral>
  0.0000

> <r_epik_State_Penalty>
 -0.0000

> <r_epik_Charging_Adjusted_Penalty>
1.10529e-07

> <i_epik_Tot_Q>
0

> <i_epik_Tot_abs_Q>
0

> <s_epik_Chemistry_Notes>
This compound has an imine and may undergo hydrolysis.

> <s_lp_Force_Field>
OPLS3e

> <r_lp_Energy>
53.1623

> <b_lp_Chiralities_Consistent>
1

> <s_lp_Variant>
p38_p38a_2r-1

> <s_i_glide_gridfile>
p38-001-gridgen

> <i_i_glide_lignum>
18

> <i_i_glide_rotatable_bonds>
7

> <r_i_docking_score>
-11.0092465928378

> <r_i_glide_ligand_efficiency>
-0.34403895602618

> <r_i_glide_ligand_efficiency_sa>
-1.09225560016618

> <r_i_glide_ligand_efficiency_ln>
-2.46527041286424

> <r_i_glide_gscore>
-11.0092465928378

> <r_i_glide_lipo>
-3.4449876479931

> <r_i_glide_hbond>
-0.96

> <r_i_glide_metal>
-0

> <r_i_glide_rewards>
-2.5415376841076

> <r_i_glide_evdw>
-43.4711952209473

> <r_i_glide_ecoul>
-16.6114654541016

> <r_i_glide_erotb>
0.602558318425538

> <r_i_glide_esite>
0

> <r_i_glide_emodel>
-91.475428063188

> <r_i_glide_energy>
-60.0826606750488

> <r_i_glide_einternal>
5.735191822052

> <i_i_glide_confnum>
81

> <i_i_glide_posenum>
254

> <r_i_glide_eff_state_penalty>
-0

$$$$
