p38_p38a_2j
                    3D
 Schrodinger Suite 2020-3.
 48 51  0  0  1  0            999 V2000
   23.7073   12.6041   32.1754 C   0  0  0  0  0  0
   22.4910   11.9196   31.6835 N   0  0  0  0  0  0
   21.3583   12.6718   31.4953 C   0  0  0  0  0  0
   21.3195   13.8904   31.6881 O   0  0  0  0  0  0
   20.1590   11.9347   31.0529 C   0  0  0  0  0  0
   18.8956   12.7990   30.8785 C   0  0  0  0  0  0
   17.5201   12.1354   30.8822 C   0  0  0  0  0  0
   17.0683   11.4250   32.0030 C   0  0  0  0  0  0
   15.7786   10.8884   32.0221 C   0  0  0  0  0  0
   14.9532   11.0251   30.9062 C   0  0  0  0  0  0
   13.7243   10.4701   30.8878 F   0  0  0  0  0  0
   15.3992   11.7261   29.7927 C   0  0  0  0  0  0
   16.6623   12.3054   29.7869 C   0  0  0  0  0  0
   17.0465   13.0252   28.7070 F   0  0  0  0  0  0
   20.2035   10.6008   30.8111 C   0  0  0  0  0  0
   21.4456    9.8379   30.9778 C   0  0  0  0  0  0
   21.5880    8.4771   30.6995 C   0  0  0  0  0  0
   22.7633    7.8247   30.8875 N   0  0  0  0  0  0
   23.8119    8.5490   31.3520 C   0  0  0  0  0  0
   24.9916    7.8253   31.5862 N   0  0  0  0  0  0
   26.2391    8.4583   32.0144 C   0  0  0  0  0  0
   26.9923    7.5018   32.9539 C   0  0  0  0  0  0
   28.3843    8.0715   33.2905 C   0  0  0  0  0  0
   29.1038    8.3330   32.0877 O   0  0  0  0  0  0
   28.4903    9.2934   31.2258 C   0  0  0  0  0  0
   27.1021    8.7875   30.7808 C   0  0  0  0  0  0
   23.7690    9.8834   31.6222 N   0  0  0  0  0  0
   22.5803   10.5211   31.4316 C   0  0  0  0  0  0
   24.0943   12.0974   33.0602 H   0  0  0  0  0  0
   24.4863   12.5740   31.4122 H   0  0  0  0  0  0
   23.5568   13.6491   32.4508 H   0  0  0  0  0  0
   19.0204   13.4060   29.9767 H   0  0  0  0  0  0
   18.8441   13.5158   31.6937 H   0  0  0  0  0  0
   17.7097   11.3007   32.8640 H   0  0  0  0  0  0
   15.4307   10.3367   32.8851 H   0  0  0  0  0  0
   14.7644   11.8223   28.9272 H   0  0  0  0  0  0
   19.3158   10.0871   30.4752 H   0  0  0  0  0  0
   20.7588    7.8857   30.3367 H   0  0  0  0  0  0
   25.0393    6.8585   31.2877 H   0  0  0  0  0  0
   26.0220    9.3894   32.5414 H   0  0  0  0  0  0
   26.4229    7.3403   33.8708 H   0  0  0  0  0  0
   27.1156    6.5225   32.4875 H   0  0  0  0  0  0
   28.3024    8.9804   33.8874 H   0  0  0  0  0  0
   28.9480    7.3531   33.8859 H   0  0  0  0  0  0
   28.4124   10.2577   31.7300 H   0  0  0  0  0  0
   29.1325    9.4503   30.3599 H   0  0  0  0  0  0
   27.2238    7.9045   30.1508 H   0  0  0  0  0  0
   26.6150    9.5450   30.1657 H   0  0  0  0  0  0
  1  2  1  0  0  0
  1 29  1  0  0  0
  1 30  1  0  0  0
  1 31  1  0  0  0
  2 28  1  0  0  0
  2  3  1  0  0  0
  3  4  2  0  0  0
  3  5  1  0  0  0
  5  6  1  0  0  0
  5 15  2  0  0  0
  6  7  1  0  0  0
  6 32  1  0  0  0
  6 33  1  0  0  0
  7 13  1  0  0  0
  7  8  2  0  0  0
  8  9  1  0  0  0
  8 34  1  0  0  0
  9 10  2  0  0  0
  9 35  1  0  0  0
 10 11  1  0  0  0
 10 12  1  0  0  0
 12 13  2  0  0  0
 12 36  1  0  0  0
 13 14  1  0  0  0
 15 16  1  0  0  0
 15 37  1  0  0  0
 16 28  2  0  0  0
 16 17  1  0  0  0
 17 18  2  0  0  0
 17 38  1  0  0  0
 18 19  1  0  0  0
 19 20  1  0  0  0
 19 27  2  0  0  0
 20 21  1  0  0  0
 20 39  1  0  0  0
 21 26  1  0  0  0
 21 22  1  0  0  0
 21 40  1  0  0  0
 22 23  1  0  0  0
 22 41  1  0  0  0
 22 42  1  0  0  0
 23 24  1  0  0  0
 23 43  1  0  0  0
 23 44  1  0  0  0
 24 25  1  0  0  0
 25 26  1  0  0  0
 25 45  1  0  0  0
 25 46  1  0  0  0
 26 47  1  0  0  0
 26 48  1  0  0  0
 27 28  1  0  0  0
M  END
> <s_m_source_file>
/home/user-home/yujie/0_PBCNetv2/data/FEP/p38/inp_ligprep.csv

> <i_m_source_file_index>
28

> <i_lp_mmshare_version>
51139

> <i_f3d_flags>
0

> <s_epik_input>
W0NIMl0xW0NIMl1PW0NIMl1bQ0gyXVtDSF0xW05IXWMobltjSF0yKW5jKGMyMyluKFtDSDNdKWMoPU8pYyhbY0hdMylbQ0gyXWM0W2NIXVtjSF1jKEYpW2NIXWM0Rg==

> <s_epik_cmdline>
J2VwaWtfcHl0aG9uJywgJy1waHQnLCAnMi4wJywgJy1waCcsICc3LjQnLCAnLXRuJywgJzgnLCAnLW1hJywgJzIwMCcsICctaW1hZScsICc8aW5maWxlLm1hZT4nLCAnLW9tYWUnLCAnPG91dGZpbGUubWFlPic=

> <r_lp_tautomer_probability>
1

> <r_epik_Ionization_Penalty>
  0.0000

> <r_epik_Ionization_Penalty_Charging>
  0.0000

> <r_epik_Ionization_Penalty_Neutral>
  0.0000

> <r_epik_State_Penalty>
 -0.0000

> <r_epik_Charging_Adjusted_Penalty>
1.24485e-06

> <i_epik_Tot_Q>
0

> <i_epik_Tot_abs_Q>
0

> <s_epik_Chemistry_Notes>
This compound has an imine and may undergo hydrolysis.

> <s_lp_Force_Field>
OPLS3e

> <r_lp_Energy>
41.1687

> <b_lp_Chiralities_Consistent>
1

> <s_lp_Variant>
p38_p38a_2j-1

> <s_i_glide_gridfile>
p38-001-gridgen

> <i_i_glide_lignum>
29

> <i_i_glide_rotatable_bonds>
4

> <r_i_docking_score>
-10.1760422234921

> <r_i_glide_ligand_efficiency>
-0.363430079410432

> <r_i_glide_ligand_efficiency_sa>
-1.10358776995982

> <r_i_glide_ligand_efficiency_ln>
-2.34892932676453

> <r_i_glide_gscore>
-10.1760422234921

> <r_i_glide_lipo>
-3.50059375121842

> <r_i_glide_hbond>
-0.864

> <r_i_glide_metal>
-0

> <r_i_glide_rewards>
-2.9971268056508

> <r_i_glide_evdw>
-40.350456237793

> <r_i_glide_ecoul>
-8.72945404052734

> <r_i_glide_erotb>
0.521440861210304

> <r_i_glide_esite>
-0.00882160986442009

> <r_i_glide_emodel>
-74.7777707620365

> <r_i_glide_energy>
-49.0799102783203

> <r_i_glide_einternal>
2.61508870124817

> <i_i_glide_confnum>
30

> <i_i_glide_posenum>
275

> <r_i_glide_eff_state_penalty>
-0

$$$$
