p38_p38a_2e
                    3D
 Schrodinger Suite 2020-3.
 46 49  0  0  1  0            999 V2000
   23.9928   12.6612   31.8779 C   0  0  0  0  0  0
   22.7306   11.9493   31.5910 N   0  0  0  0  0  0
   21.5731   12.6884   31.5380 C   0  0  0  0  0  0
   21.5267   13.9108   31.6873 O   0  0  0  0  0  0
   20.3470   11.9225   31.2923 C   0  0  0  0  0  0
   19.2132   12.6836   31.3179 O   0  0  0  0  0  0
   17.9533   12.1379   31.2849 C   0  0  0  0  0  0
   17.4537   11.4234   32.3773 C   0  0  0  0  0  0
   16.1433   10.9513   32.3515 C   0  0  0  0  0  0
   15.3574   11.1570   31.2214 C   0  0  0  0  0  0
   14.1194   10.6249   31.1590 F   0  0  0  0  0  0
   15.8499   11.8825   30.1404 C   0  0  0  0  0  0
   17.1423   12.3950   30.1816 C   0  0  0  0  0  0
   20.3639   10.5862   31.0473 C   0  0  0  0  0  0
   21.6257    9.8409   31.0688 C   0  0  0  0  0  0
   21.7415    8.4761   30.8155 C   0  0  0  0  0  0
   22.9263    7.8249   30.9064 N   0  0  0  0  0  0
   24.0079    8.5584   31.2664 C   0  0  0  0  0  0
   25.1869    7.8252   31.4512 N   0  0  0  0  0  0
   26.3866    8.4098   32.0419 C   0  0  0  0  0  0
   26.2080    8.5344   33.5698 C   0  0  0  0  0  0
   27.5365    8.9511   34.2307 C   0  0  0  0  0  0
   28.5624    8.0188   33.8878 O   0  0  0  0  0  0
   28.8338    7.9372   32.4875 C   0  0  0  0  0  0
   27.5690    7.4737   31.7413 C   0  0  0  0  0  0
   24.0007    9.9030   31.4838 N   0  0  0  0  0  0
   22.8010   10.5416   31.3747 C   0  0  0  0  0  0
   24.4619   12.2505   32.7717 H   0  0  0  0  0  0
   24.6918   12.5308   31.0499 H   0  0  0  0  0  0
   23.8772   13.7345   32.0410 H   0  0  0  0  0  0
   18.0768   11.2465   33.2415 H   0  0  0  0  0  0
   15.7435   10.3937   33.1849 H   0  0  0  0  0  0
   15.2327   12.0408   29.2725 H   0  0  0  0  0  0
   17.5279   12.9715   29.3523 H   0  0  0  0  0  0
   19.4424   10.0559   30.8570 H   0  0  0  0  0  0
   20.8896    7.8735   30.5502 H   0  0  0  0  0  0
   25.1385    6.8135   31.4183 H   0  0  0  0  0  0
   26.5548    9.3998   31.6129 H   0  0  0  0  0  0
   25.4393    9.2708   33.8074 H   0  0  0  0  0  0
   25.8745    7.5860   33.9963 H   0  0  0  0  0  0
   27.8264    9.9600   33.9295 H   0  0  0  0  0  0
   27.4272    8.9720   35.3140 H   0  0  0  0  0  0
   29.1837    8.8991   32.1098 H   0  0  0  0  0  0
   29.6427    7.2228   32.3271 H   0  0  0  0  0  0
   27.3334    6.4578   32.0625 H   0  0  0  0  0  0
   27.7535    7.4324   30.6670 H   0  0  0  0  0  0
  1  2  1  0  0  0
  1 28  1  0  0  0
  1 29  1  0  0  0
  1 30  1  0  0  0
  2 27  1  0  0  0
  2  3  1  0  0  0
  3  4  2  0  0  0
  3  5  1  0  0  0
  5  6  1  0  0  0
  5 14  2  0  0  0
  6  7  1  0  0  0
  7 13  1  0  0  0
  7  8  2  0  0  0
  8  9  1  0  0  0
  8 31  1  0  0  0
  9 10  2  0  0  0
  9 32  1  0  0  0
 10 11  1  0  0  0
 10 12  1  0  0  0
 12 13  2  0  0  0
 12 33  1  0  0  0
 13 34  1  0  0  0
 14 15  1  0  0  0
 14 35  1  0  0  0
 15 27  2  0  0  0
 15 16  1  0  0  0
 16 17  2  0  0  0
 16 36  1  0  0  0
 17 18  1  0  0  0
 18 19  1  0  0  0
 18 26  2  0  0  0
 19 20  1  0  0  0
 19 37  1  0  0  0
 20 25  1  0  0  0
 20 21  1  0  0  0
 20 38  1  0  0  0
 21 22  1  0  0  0
 21 39  1  0  0  0
 21 40  1  0  0  0
 22 23  1  0  0  0
 22 41  1  0  0  0
 22 42  1  0  0  0
 23 24  1  0  0  0
 24 25  1  0  0  0
 24 43  1  0  0  0
 24 44  1  0  0  0
 25 45  1  0  0  0
 25 46  1  0  0  0
 26 27  1  0  0  0
M  END
> <s_m_source_file>
/home/user-home/yujie/0_PBCNetv2/data/FEP/p38/inp_ligprep.csv

> <i_m_source_file_index>
5

> <i_lp_mmshare_version>
51139

> <i_f3d_flags>
0

> <s_epik_input>
W2NIXTFbY0hdYyhGKVtjSF1bY0hdYzFPYyhbY0hdMiljKD1PKW4oW0NIM10pYyhjMjMpbmMobltjSF0zKVtOSF1bQ0hdNFtDSDJdW0NIMl1PW0NIMl1bQ0gyXTQ=

> <s_epik_cmdline>
J2VwaWtfcHl0aG9uJywgJy1waHQnLCAnMi4wJywgJy1waCcsICc3LjQnLCAnLXRuJywgJzgnLCAnLW1hJywgJzIwMCcsICctaW1hZScsICc8aW5maWxlLm1hZT4nLCAnLW9tYWUnLCAnPG91dGZpbGUubWFlPic=

> <r_lp_tautomer_probability>
1

> <r_epik_Ionization_Penalty>
  0.0000

> <r_epik_Ionization_Penalty_Charging>
  0.0000

> <r_epik_Ionization_Penalty_Neutral>
  0.0000

> <r_epik_State_Penalty>
 -0.0000

> <r_epik_Charging_Adjusted_Penalty>
1.64235e-06

> <i_epik_Tot_Q>
0

> <i_epik_Tot_abs_Q>
0

> <s_epik_Chemistry_Notes>
This compound has an imine and may undergo hydrolysis.

> <s_lp_Force_Field>
OPLS3e

> <r_lp_Energy>
52.5687

> <b_lp_Chiralities_Consistent>
1

> <s_lp_Variant>
p38_p38a_2e-1

> <s_i_glide_gridfile>
p38-001-gridgen

> <i_i_glide_lignum>
5

> <i_i_glide_rotatable_bonds>
4

> <r_i_docking_score>
-9.6905714638681

> <r_i_glide_ligand_efficiency>
-0.358910054217337

> <r_i_glide_ligand_efficiency_sa>
-1.0767301614691

> <r_i_glide_ligand_efficiency_ln>
-2.25580527523187

> <r_i_glide_gscore>
-9.6905714638681

> <r_i_glide_lipo>
-3.13336542212882

> <r_i_glide_hbond>
-0.864

> <r_i_glide_metal>
-0

> <r_i_glide_rewards>
-2.6865520982666

> <r_i_glide_evdw>
-41.8872680664062

> <r_i_glide_ecoul>
-9.75038909912109

> <r_i_glide_erotb>
0.562515907123166

> <r_i_glide_esite>
-0.0122480824073664

> <r_i_glide_emodel>
-79.2304325831829

> <r_i_glide_energy>
-51.6376571655273

> <r_i_glide_einternal>
1.72886216640472

> <i_i_glide_confnum>
26

> <i_i_glide_posenum>
7

> <r_i_glide_eff_state_penalty>
-0

$$$$
