p38_p38a_2i
                    3D
 Schrodinger Suite 2020-3.
 48 51  0  0  1  0            999 V2000
   23.7672   12.6516   31.9128 C   0  0  0  0  0  0
   22.5395   11.9264   31.5180 N   0  0  0  0  0  0
   21.3754   12.6440   31.3926 C   0  0  0  0  0  0
   21.3188   13.8608   31.5839 O   0  0  0  0  0  0
   20.1751   11.8684   31.0252 C   0  0  0  0  0  0
   18.8655   12.6721   30.9410 C   0  0  0  0  0  0
   17.5411   11.9274   31.0938 C   0  0  0  0  0  0
   16.5717   12.0137   30.0879 C   0  0  0  0  0  0
   15.3186   11.4282   30.2635 C   0  0  0  0  0  0
   15.0080   10.7928   31.4638 C   0  0  0  0  0  0
   15.9534   10.7358   32.4868 C   0  0  0  0  0  0
   17.2155   11.2977   32.3015 C   0  0  0  0  0  0
   18.1277   11.2229   33.2944 F   0  0  0  0  0  0
   20.2401   10.5345   30.8026 C   0  0  0  0  0  0
   21.5059    9.8071   30.9209 C   0  0  0  0  0  0
   21.6547    8.4434   30.6868 C   0  0  0  0  0  0
   22.8519    7.8242   30.8326 N   0  0  0  0  0  0
   23.9103    8.5787   31.2131 C   0  0  0  0  0  0
   25.1166    7.8797   31.3679 N   0  0  0  0  0  0
   26.2922    8.4790   31.9949 C   0  0  0  0  0  0
   26.1398    8.3995   33.5282 C   0  0  0  0  0  0
   27.4491    8.8207   34.2219 C   0  0  0  0  0  0
   28.5261    8.0149   33.7457 O   0  0  0  0  0  0
   28.7805    8.1470   32.3470 C   0  0  0  0  0  0
   27.5429    7.7011   31.5440 C   0  0  0  0  0  0
   23.8598    9.9169   31.4465 N   0  0  0  0  0  0
   22.6490   10.5261   31.2947 C   0  0  0  0  0  0
   24.2025   12.1960   32.8034 H   0  0  0  0  0  0
   24.5081   12.5924   31.1145 H   0  0  0  0  0  0
   23.6158   13.7086   32.1384 H   0  0  0  0  0  0
   18.8529   13.2997   30.0478 H   0  0  0  0  0  0
   18.8630   13.3709   31.7796 H   0  0  0  0  0  0
   16.7877   12.5293   29.1627 H   0  0  0  0  0  0
   14.5849   11.4718   29.4722 H   0  0  0  0  0  0
   14.0385   10.3378   31.5992 H   0  0  0  0  0  0
   15.7187   10.2378   33.4166 H   0  0  0  0  0  0
   19.3421    9.9918   30.5403 H   0  0  0  0  0  0
   20.8186    7.8255   30.3891 H   0  0  0  0  0  0
   25.0893    6.8685   31.3158 H   0  0  0  0  0  0
   26.3689    9.5275   31.6970 H   0  0  0  0  0  0
   25.3258    9.0426   33.8641 H   0  0  0  0  0  0
   25.8813    7.3847   33.8361 H   0  0  0  0  0  0
   27.6607    9.8781   34.0530 H   0  0  0  0  0  0
   27.3630    8.6894   35.3007 H   0  0  0  0  0  0
   29.0562    9.1756   32.1068 H   0  0  0  0  0  0
   29.6395    7.5268   32.0888 H   0  0  0  0  0  0
   27.4039    6.6269   31.6851 H   0  0  0  0  0  0
   27.7185    7.8523   30.4784 H   0  0  0  0  0  0
  1  2  1  0  0  0
  1 28  1  0  0  0
  1 29  1  0  0  0
  1 30  1  0  0  0
  2 27  1  0  0  0
  2  3  1  0  0  0
  3  4  2  0  0  0
  3  5  1  0  0  0
  5  6  1  0  0  0
  5 14  2  0  0  0
  6  7  1  0  0  0
  6 31  1  0  0  0
  6 32  1  0  0  0
  7 12  1  0  0  0
  7  8  2  0  0  0
  8  9  1  0  0  0
  8 33  1  0  0  0
  9 10  2  0  0  0
  9 34  1  0  0  0
 10 11  1  0  0  0
 10 35  1  0  0  0
 11 12  2  0  0  0
 11 36  1  0  0  0
 12 13  1  0  0  0
 14 15  1  0  0  0
 14 37  1  0  0  0
 15 27  2  0  0  0
 15 16  1  0  0  0
 16 17  2  0  0  0
 16 38  1  0  0  0
 17 18  1  0  0  0
 18 19  1  0  0  0
 18 26  2  0  0  0
 19 20  1  0  0  0
 19 39  1  0  0  0
 20 25  1  0  0  0
 20 21  1  0  0  0
 20 40  1  0  0  0
 21 22  1  0  0  0
 21 41  1  0  0  0
 21 42  1  0  0  0
 22 23  1  0  0  0
 22 43  1  0  0  0
 22 44  1  0  0  0
 23 24  1  0  0  0
 24 25  1  0  0  0
 24 45  1  0  0  0
 24 46  1  0  0  0
 25 47  1  0  0  0
 25 48  1  0  0  0
 26 27  1  0  0  0
M  END
> <s_m_source_file>
/home/user-home/yujie/0_PBCNetv2/data/FEP/p38/inp_ligprep.csv

> <i_m_source_file_index>
33

> <i_lp_mmshare_version>
51139

> <i_f3d_flags>
0

> <s_epik_input>
W0NIMl0xW0NIMl1PW0NIMl1bQ0gyXVtDSF0xW05IXWMobltjSF0yKW5jKGMyMyluKFtDSDNdKWMoPU8pYyhbY0hdMylbQ0gyXWM0W2NIXVtjSF1bY0hdW2NIXWM0Rg==

> <s_epik_cmdline>
J2VwaWtfcHl0aG9uJywgJy1waHQnLCAnMi4wJywgJy1waCcsICc3LjQnLCAnLXRuJywgJzgnLCAnLW1hJywgJzIwMCcsICctaW1hZScsICc8aW5maWxlLm1hZT4nLCAnLW9tYWUnLCAnPG91dGZpbGUubWFlPic=

> <r_lp_tautomer_probability>
1

> <r_epik_Ionization_Penalty>
  0.0000

> <r_epik_Ionization_Penalty_Charging>
  0.0000

> <r_epik_Ionization_Penalty_Neutral>
  0.0000

> <r_epik_State_Penalty>
 -0.0000

> <r_epik_Charging_Adjusted_Penalty>
1.24485e-06

> <i_epik_Tot_Q>
0

> <i_epik_Tot_abs_Q>
0

> <s_epik_Chemistry_Notes>
This compound has an imine and may undergo hydrolysis.

> <s_lp_Force_Field>
OPLS3e

> <r_lp_Energy>
35.324

> <b_lp_Chiralities_Consistent>
1

> <s_lp_Variant>
p38_p38a_2i-1

> <s_i_glide_gridfile>
p38-001-gridgen

> <i_i_glide_lignum>
34

> <i_i_glide_rotatable_bonds>
4

> <r_i_docking_score>
-9.87141783969509

> <r_i_glide_ligand_efficiency>
-0.365608068136855

> <r_i_glide_ligand_efficiency_sa>
-1.09682420320558

> <r_i_glide_ligand_efficiency_ln>
-2.29790333003887

> <r_i_glide_gscore>
-9.87141783969509

> <r_i_glide_lipo>
-3.31205195428163

> <r_i_glide_hbond>
-0.864

> <r_i_glide_metal>
-0

> <r_i_glide_rewards>
-2.73863350999523

> <r_i_glide_evdw>
-40.9218826293945

> <r_i_glide_ecoul>
-9.81756687164307

> <r_i_glide_erotb>
0.5679100821473

> <r_i_glide_esite>
-0.00591329534934208

> <r_i_glide_emodel>
-77.3029149755651

> <r_i_glide_energy>
-50.7394495010376

> <r_i_glide_einternal>
3.60491466522217

> <i_i_glide_confnum>
52

> <i_i_glide_posenum>
83

> <r_i_glide_eff_state_penalty>
-0

$$$$
