p38_p38a_2o
                    3D
 Schrodinger Suite 2020-3.
 55 58  0  0  1  0            999 V2000
   24.8648   16.1361   31.3098 C   0  0  0  0  0  0
   25.9250   14.5910   31.2008 S   0  0  0  0  0  0
   26.4332   14.2921   32.5427 O   0  0  0  0  0  0
   26.8568   14.7773   30.0868 O   0  0  0  0  0  0
   24.6870   13.2494   30.7224 C   0  0  0  0  0  0
   23.8681   12.8031   31.9521 C   0  0  0  0  0  0
   22.6434   12.0423   31.6127 N   0  0  0  0  0  0
   21.4703   12.7522   31.5280 C   0  0  0  0  0  0
   21.3871   13.9742   31.6879 O   0  0  0  0  0  0
   20.2708   11.9609   31.2480 C   0  0  0  0  0  0
   19.1243   12.7032   31.2727 O   0  0  0  0  0  0
   17.8741   12.1450   31.1866 C   0  0  0  0  0  0
   17.0782   12.4655   30.0880 C   0  0  0  0  0  0
   15.7897   11.9475   29.9868 C   0  0  0  0  0  0
   15.2742   11.1498   31.0051 C   0  0  0  0  0  0
   14.0393   10.6248   30.8880 F   0  0  0  0  0  0
   16.0447   10.8732   32.1305 C   0  0  0  0  0  0
   17.3494   11.3586   32.2177 C   0  0  0  0  0  0
   18.1076   11.0412   33.2883 F   0  0  0  0  0  0
   20.3224   10.6244   30.9992 C   0  0  0  0  0  0
   21.6012    9.9056   31.0466 C   0  0  0  0  0  0
   21.7572    8.5406   30.7951 C   0  0  0  0  0  0
   22.9638    7.9221   30.8884 N   0  0  0  0  0  0
   24.0223    8.6986   31.2432 C   0  0  0  0  0  0
   25.2513    8.0356   31.3825 N   0  0  0  0  0  0
   26.4945    8.7560   31.6622 C   0  0  0  0  0  0
   27.4980    7.8034   32.3332 C   0  0  0  0  0  0
   28.8425    8.5278   32.5369 C   0  0  0  0  0  0
   29.3196    9.0248   31.2877 O   0  0  0  0  0  0
   28.4566    9.9552   30.6334 C   0  0  0  0  0  0
   27.0920    9.2978   30.3517 C   0  0  0  0  0  0
   23.9640   10.0352   31.4852 N   0  0  0  0  0  0
   22.7501   10.6379   31.3799 C   0  0  0  0  0  0
   25.5093   16.9772   31.5561 H   0  0  0  0  0  0
   24.3848   16.2997   30.3457 H   0  0  0  0  0  0
   24.1190   15.9931   32.0878 H   0  0  0  0  0  0
   25.2237   12.4173   30.2676 H   0  0  0  0  0  0
   24.0550   13.6708   29.9412 H   0  0  0  0  0  0
   23.6242   13.6804   32.5556 H   0  0  0  0  0  0
   24.5104   12.2252   32.6188 H   0  0  0  0  0  0
   17.4726   13.0998   29.3052 H   0  0  0  0  0  0
   15.1956   12.1525   29.1156 H   0  0  0  0  0  0
   15.6442   10.2466   32.9127 H   0  0  0  0  0  0
   19.4179   10.0735   30.7961 H   0  0  0  0  0  0
   20.9167    7.9220   30.5221 H   0  0  0  0  0  0
   25.3165    7.0683   31.0991 H   0  0  0  0  0  0
   26.2852    9.5969   32.3266 H   0  0  0  0  0  0
   27.1153    7.4567   33.2933 H   0  0  0  0  0  0
   27.6545    6.9148   31.7188 H   0  0  0  0  0  0
   28.7466    9.3437   33.2542 H   0  0  0  0  0  0
   29.5835    7.8394   32.9410 H   0  0  0  0  0  0
   28.3445   10.8597   31.2352 H   0  0  0  0  0  0
   28.9203   10.2590   29.6941 H   0  0  0  0  0  0
   27.2201    8.4920   29.6264 H   0  0  0  0  0  0
   26.4202   10.0261   29.8943 H   0  0  0  0  0  0
  1  2  1  0  0  0
  1 34  1  0  0  0
  1 35  1  0  0  0
  1 36  1  0  0  0
  2  3  2  0  0  0
  2  4  2  0  0  0
  2  5  1  0  0  0
  5  6  1  0  0  0
  5 37  1  0  0  0
  5 38  1  0  0  0
  6  7  1  0  0  0
  6 39  1  0  0  0
  6 40  1  0  0  0
  7 33  1  0  0  0
  7  8  1  0  0  0
  8  9  2  0  0  0
  8 10  1  0  0  0
 10 11  1  0  0  0
 10 20  2  0  0  0
 11 12  1  0  0  0
 12 18  1  0  0  0
 12 13  2  0  0  0
 13 14  1  0  0  0
 13 41  1  0  0  0
 14 15  2  0  0  0
 14 42  1  0  0  0
 15 16  1  0  0  0
 15 17  1  0  0  0
 17 18  2  0  0  0
 17 43  1  0  0  0
 18 19  1  0  0  0
 20 21  1  0  0  0
 20 44  1  0  0  0
 21 33  2  0  0  0
 21 22  1  0  0  0
 22 23  2  0  0  0
 22 45  1  0  0  0
 23 24  1  0  0  0
 24 25  1  0  0  0
 24 32  2  0  0  0
 25 26  1  0  0  0
 25 46  1  0  0  0
 26 31  1  0  0  0
 26 27  1  0  0  0
 26 47  1  0  0  0
 27 28  1  0  0  0
 27 48  1  0  0  0
 27 49  1  0  0  0
 28 29  1  0  0  0
 28 50  1  0  0  0
 28 51  1  0  0  0
 29 30  1  0  0  0
 30 31  1  0  0  0
 30 52  1  0  0  0
 30 53  1  0  0  0
 31 54  1  0  0  0
 31 55  1  0  0  0
 32 33  1  0  0  0
M  END
> <s_m_source_file>
/home/user-home/yujie/0_PBCNetv2/data/FEP/p38/inp_ligprep.csv

> <i_m_source_file_index>
7

> <i_lp_mmshare_version>
51139

> <i_f3d_flags>
0

> <s_epik_input>
W0NIMl0xW0NIMl1PW0NIMl1bQ0gyXVtDSF0xW05IXWMobltjSF0yKW5jKGMyMyluKFtDSDJdW0NIMl1TKD1PKSg9TylbQ0gzXSljKD1PKWMoW2NIXTMpT2M0W2NIXVtjSF1jKEYpW2NIXWM0Rg==

> <s_epik_cmdline>
J2VwaWtfcHl0aG9uJywgJy1waHQnLCAnMi4wJywgJy1waCcsICc3LjQnLCAnLXRuJywgJzgnLCAnLW1hJywgJzIwMCcsICctaW1hZScsICc8aW5maWxlLm1hZT4nLCAnLW9tYWUnLCAnPG91dGZpbGUubWFlPic=

> <r_lp_tautomer_probability>
1

> <r_epik_Ionization_Penalty>
  0.0000

> <r_epik_Ionization_Penalty_Charging>
  0.0000

> <r_epik_Ionization_Penalty_Neutral>
  0.0000

> <r_epik_State_Penalty>
 -0.0000

> <r_epik_Charging_Adjusted_Penalty>
2.18642e-07

> <i_epik_Tot_Q>
0

> <i_epik_Tot_abs_Q>
0

> <s_epik_Chemistry_Notes>
This compound has an imine and may undergo hydrolysis.

> <s_lp_Force_Field>
OPLS3e

> <r_lp_Energy>
43.1867

> <b_lp_Chiralities_Consistent>
1

> <s_lp_Variant>
p38_p38a_2o-1

> <s_i_glide_gridfile>
p38-001-gridgen

> <i_i_glide_lignum>
7

> <i_i_glide_rotatable_bonds>
7

> <r_i_docking_score>
-9.83103004114881

> <r_i_glide_ligand_efficiency>
-0.297910001246934

> <r_i_glide_ligand_efficiency_sa>
-0.955556555134936

> <r_i_glide_ligand_efficiency_ln>
-2.18637017880218

> <r_i_glide_gscore>
-9.83103004114881

> <r_i_glide_lipo>
-3.44973666641373

> <r_i_glide_hbond>
-0.825752207866749

> <r_i_glide_metal>
-0

> <r_i_glide_rewards>
-2.34686266125903

> <r_i_glide_evdw>
-48.1164360046387

> <r_i_glide_ecoul>
-8.76634502410889

> <r_i_glide_erotb>
0.52704156827961

> <r_i_glide_esite>
-0.0149465200406396

> <r_i_glide_emodel>
-89.0505404418454

> <r_i_glide_energy>
-56.8827810287476

> <r_i_glide_einternal>
2.3130841255188

> <i_i_glide_confnum>
35

> <i_i_glide_posenum>
124

> <r_i_glide_eff_state_penalty>
-0

$$$$
