p38_p38a_2ff
                    3D
 Schrodinger Suite 2020-3.
 49 52  0  0  1  0            999 V2000
   24.0175   12.6935   31.6817 C   0  0  0  0  0  0
   22.7424   11.9743   31.4698 N   0  0  0  0  0  0
   21.5787   12.7061   31.4924 C   0  0  0  0  0  0
   21.5309   13.9242   31.6873 O   0  0  0  0  0  0
   20.3469   11.9414   31.2693 C   0  0  0  0  0  0
   19.2151   12.7076   31.3194 O   0  0  0  0  0  0
   17.9520   12.1735   31.2155 C   0  0  0  0  0  0
   17.1831   12.4681   30.0887 C   0  0  0  0  0  0
   15.8898   11.9573   29.9737 C   0  0  0  0  0  0
   15.3449   11.1823   30.9973 C   0  0  0  0  0  0
   14.1183   10.6382   30.8617 F   0  0  0  0  0  0
   16.0909   10.9365   32.1466 C   0  0  0  0  0  0
   17.3948   11.4144   32.2519 C   0  0  0  0  0  0
   18.1198   11.1183   33.3502 F   0  0  0  0  0  0
   20.3562   10.6029   31.0339 C   0  0  0  0  0  0
   21.6192    9.8542   31.0402 C   0  0  0  0  0  0
   21.7231    8.4735   30.8875 C   0  0  0  0  0  0
   22.9101    7.8245   31.0015 N   0  0  0  0  0  0
   24.0118    8.5683   31.2645 C   0  0  0  0  0  0
   25.1984    7.8300   31.4483 N   0  0  0  0  0  0
   26.5445    8.3994   31.6145 C   0  0  2  0  0  0
   26.6759    9.3088   32.8717 C   0  0  0  0  0  0
   28.0297   10.0532   32.9338 C   0  0  0  0  0  0
   28.3710   10.7683   31.6068 C   0  0  1  0  0  0
   29.6048   11.4530   31.6878 O   0  0  0  0  0  0
   28.3646    9.7576   30.4478 C   0  0  0  0  0  0
   26.9998    9.0632   30.2956 C   0  0  0  0  0  0
   24.0076    9.9249   31.3739 N   0  0  0  0  0  0
   22.8063   10.5632   31.2735 C   0  0  0  0  0  0
   24.5208   12.3121   32.5704 H   0  0  0  0  0  0
   24.6820   12.5349   30.8320 H   0  0  0  0  0  0
   23.9076   13.7702   31.8072 H   0  0  0  0  0  0
   17.6024   13.0700   29.2946 H   0  0  0  0  0  0
   15.3184   12.1415   29.0811 H   0  0  0  0  0  0
   15.6763   10.3260   32.9350 H   0  0  0  0  0  0
   19.4271   10.0710   30.8719 H   0  0  0  0  0  0
   20.8526    7.8626   30.7091 H   0  0  0  0  0  0
   25.1541    6.8291   31.2915 H   0  0  0  0  0  0
   27.1909    7.5316   31.7554 H   0  0  0  0  0  0
   25.8916   10.0585   32.9275 H   0  0  0  0  0  0
   26.5567    8.7021   33.7704 H   0  0  0  0  0  0
   28.8243    9.3444   33.1740 H   0  0  0  0  0  0
   28.0131   10.7744   33.7524 H   0  0  0  0  0  0
   27.6181   11.5414   31.4386 H   0  0  0  0  0  0
   29.8399   11.7867   30.8071 H   0  0  0  0  0  0
   29.1478    9.0241   30.6272 H   0  0  0  0  0  0
   28.6331   10.2263   29.5092 H   0  0  0  0  0  0
   27.0616    8.3160   29.5034 H   0  0  0  0  0  0
   26.2691    9.7986   29.9572 H   0  0  0  0  0  0
  1  2  1  0  0  0
  1 30  1  0  0  0
  1 31  1  0  0  0
  1 32  1  0  0  0
  2 29  1  0  0  0
  2  3  1  0  0  0
  3  4  2  0  0  0
  3  5  1  0  0  0
  5  6  1  0  0  0
  5 15  2  0  0  0
  6  7  1  0  0  0
  7 13  1  0  0  0
  7  8  2  0  0  0
  8  9  1  0  0  0
  8 33  1  0  0  0
  9 10  2  0  0  0
  9 34  1  0  0  0
 10 11  1  0  0  0
 10 12  1  0  0  0
 12 13  2  0  0  0
 12 35  1  0  0  0
 13 14  1  0  0  0
 15 16  1  0  0  0
 15 36  1  0  0  0
 16 29  2  0  0  0
 16 17  1  0  0  0
 17 18  2  0  0  0
 17 37  1  0  0  0
 18 19  1  0  0  0
 19 20  1  0  0  0
 19 28  2  0  0  0
 20 21  1  0  0  0
 20 38  1  0  0  0
 21 27  1  0  0  0
 21 22  1  0  0  0
 21 39  1  0  0  0
 22 23  1  0  0  0
 22 40  1  0  0  0
 22 41  1  0  0  0
 23 24  1  0  0  0
 23 42  1  0  0  0
 23 43  1  0  0  0
 24 25  1  0  0  0
 24 26  1  0  0  0
 24 44  1  0  0  0
 25 45  1  0  0  0
 26 27  1  0  0  0
 26 46  1  0  0  0
 26 47  1  0  0  0
 27 48  1  0  0  0
 27 49  1  0  0  0
 28 29  1  0  0  0
M  END
> <s_m_source_file>
/home/user-home/yujie/0_PBCNetv2/data/FEP/p38/inp_ligprep.csv

> <i_m_source_file_index>
3

> <i_lp_mmshare_version>
51139

> <i_f3d_flags>
0

> <s_epik_input>
W0NIMl0xW0NIMl1bQ0BIXShbT0hdKVtDSDJdW0NIMl1bQ0BIXTFbTkhdYyhuW2NIXTIpbmMoYzIzKW4oW0NIM10pYyg9TyljKFtjSF0zKU9jNFtjSF1bY0hdYyhGKVtjSF1jNEY=

> <s_epik_cmdline>
J2VwaWtfcHl0aG9uJywgJy1waHQnLCAnMi4wJywgJy1waCcsICc3LjQnLCAnLXRuJywgJzgnLCAnLW1hJywgJzIwMCcsICctaW1hZScsICc8aW5maWxlLm1hZT4nLCAnLW9tYWUnLCAnPG91dGZpbGUubWFlPic=

> <r_lp_tautomer_probability>
1

> <r_epik_Ionization_Penalty>
  0.0000

> <r_epik_Ionization_Penalty_Charging>
  0.0000

> <r_epik_Ionization_Penalty_Neutral>
  0.0000

> <r_epik_State_Penalty>
 -0.0000

> <r_epik_Charging_Adjusted_Penalty>
7.39736e-07

> <i_epik_Tot_Q>
0

> <i_epik_Tot_abs_Q>
0

> <s_epik_Chemistry_Notes>
This compound has an imine and may undergo hydrolysis.

> <s_lp_Force_Field>
OPLS3e

> <r_lp_Energy>
56.1519

> <b_lp_Chiralities_Consistent>
1

> <s_lp_Variant>
p38_p38a_2ff-1

> <s_i_glide_gridfile>
p38-001-gridgen

> <i_i_glide_lignum>
3

> <i_i_glide_rotatable_bonds>
5

> <r_i_docking_score>
-10.6864692724923

> <r_i_glide_ligand_efficiency>
-0.368498940430768

> <r_i_glide_ligand_efficiency_sa>
-1.1321454936621

> <r_i_glide_ligand_efficiency_ln>
-2.44693047792125

> <r_i_glide_gscore>
-10.6864692724923

> <r_i_glide_lipo>
-3.33864623913149

> <r_i_glide_hbond>
-1.12033122308629

> <r_i_glide_metal>
-0

> <r_i_glide_rewards>
-2.84175011695723

> <r_i_glide_evdw>
-42.7543182373047

> <r_i_glide_ecoul>
-11.4724941253662

> <r_i_glide_erotb>
0.484762433879448

> <r_i_glide_esite>
-0.0119140965265402

> <r_i_glide_emodel>
-87.0238063972639

> <r_i_glide_energy>
-54.2268123626709

> <r_i_glide_einternal>
2.63965272903442

> <i_i_glide_confnum>
15

> <i_i_glide_posenum>
350

> <r_i_glide_eff_state_penalty>
-0

$$$$
