p38_p38a_2u
                    3D
 Schrodinger Suite 2020-3.
 64 68  0  0  1  0            999 V2000
   28.9827   12.9874   34.6888 C   0  0  0  0  0  0
   28.1781   12.3750   33.1063 S   0  0  0  0  0  0
   27.8255   10.9697   33.3074 O   0  0  0  0  0  0
   29.0168   12.7682   31.9750 O   0  0  0  0  0  0
   26.6635   13.2793   33.0226 N   0  0  2  0  0  0
   25.6596   13.0978   34.0860 C   0  0  0  0  0  0
   24.4750   12.2279   33.6304 C   0  0  0  0  0  0
   23.9117   12.6587   32.2468 C   0  0  0  0  0  0
   22.6956   11.9304   31.7732 N   0  0  0  0  0  0
   21.5541   12.6814   31.5805 C   0  0  0  0  0  0
   21.4970   13.9091   31.6875 O   0  0  0  0  0  0
   20.3418   11.9299   31.2579 C   0  0  0  0  0  0
   19.2170   12.7070   31.2387 O   0  0  0  0  0  0
   17.9505   12.1806   31.1747 C   0  0  0  0  0  0
   17.1455   12.4992   30.0838 C   0  0  0  0  0  0
   15.8536   11.9824   29.9906 C   0  0  0  0  0  0
   15.3401   11.1885   31.0132 C   0  0  0  0  0  0
   14.1185   10.6263   30.8885 F   0  0  0  0  0  0
   16.1110   10.9390   32.1453 C   0  0  0  0  0  0
   17.4176   11.4198   32.2204 C   0  0  0  0  0  0
   18.1766   11.1078   33.2903 F   0  0  0  0  0  0
   20.3616   10.5934   31.0192 C   0  0  0  0  0  0
   21.6160    9.8388   31.1069 C   0  0  0  0  0  0
   21.7398    8.4856   30.7925 C   0  0  0  0  0  0
   22.9213    7.8260   30.8890 N   0  0  0  0  0  0
   23.9908    8.5479   31.3111 C   0  0  0  0  0  0
   25.1851    7.8251   31.4346 N   0  0  0  0  0  0
   26.3046    8.2891   32.2533 C   0  0  0  0  0  0
   26.0603    7.8260   33.7077 C   0  0  0  0  0  0
   27.3304    7.9443   34.5703 C   0  0  0  0  0  0
   28.4097    7.2591   33.9410 O   0  0  0  0  0  0
   28.7800    7.8050   32.6745 C   0  0  0  0  0  0
   27.6039    7.6828   31.6863 C   0  0  0  0  0  0
   23.9674    9.8739   31.6165 N   0  0  0  0  0  0
   22.7730   10.5226   31.5123 C   0  0  0  0  0  0
   25.0114   12.9258   31.1825 C   0  0  0  0  0  0
   26.1623   13.7960   31.7294 C   0  0  0  0  0  0
   29.9631   12.5226   34.7706 H   0  0  0  0  0  0
   29.0847   14.0681   34.6327 H   0  0  0  0  0  0
   28.3664   12.6998   35.5365 H   0  0  0  0  0  0
   25.3362   14.0812   34.4226 H   0  0  0  0  0  0
   26.1466   12.6249   34.9322 H   0  0  0  0  0  0
   23.6899   12.2780   34.3864 H   0  0  0  0  0  0
   24.8123   11.1920   33.6073 H   0  0  0  0  0  0
   23.5997   13.6773   32.4835 H   0  0  0  0  0  0
   17.5408   13.1159   29.2885 H   0  0  0  0  0  0
   15.2625   12.1791   29.1149 H   0  0  0  0  0  0
   15.7186   10.3217   32.9395 H   0  0  0  0  0  0
   19.4485   10.0701   30.7836 H   0  0  0  0  0  0
   20.8948    7.9049   30.4591 H   0  0  0  0  0  0
   25.1370    6.8252   31.2887 H   0  0  0  0  0  0
   26.3511    9.3781   32.2171 H   0  0  0  0  0  0
   25.2596    8.4134   34.1579 H   0  0  0  0  0  0
   25.7293    6.7858   33.7260 H   0  0  0  0  0  0
   27.5949    8.9841   34.7594 H   0  0  0  0  0  0
   27.1592    7.4950   35.5493 H   0  0  0  0  0  0
   29.1043    8.8402   32.7818 H   0  0  0  0  0  0
   29.6406    7.2512   32.2966 H   0  0  0  0  0  0
   27.4662    6.6255   31.4533 H   0  0  0  0  0  0
   27.8635    8.1715   30.7458 H   0  0  0  0  0  0
   25.4188   11.9830   30.8152 H   0  0  0  0  0  0
   24.5773   13.4269   30.3166 H   0  0  0  0  0  0
   25.8315   14.8244   31.8839 H   0  0  0  0  0  0
   26.9816   13.8342   31.0115 H   0  0  0  0  0  0
  1  2  1  0  0  0
  1 38  1  0  0  0
  1 39  1  0  0  0
  1 40  1  0  0  0
  2  3  2  0  0  0
  2  4  2  0  0  0
  2  5  1  0  0  0
  5 37  1  0  0  0
  5  6  1  0  0  0
  6  7  1  0  0  0
  6 41  1  0  0  0
  6 42  1  0  0  0
  7  8  1  0  0  0
  7 43  1  0  0  0
  7 44  1  0  0  0
  8  9  1  0  0  0
  8 36  1  0  0  0
  8 45  1  0  0  0
  9 35  1  0  0  0
  9 10  1  0  0  0
 10 11  2  0  0  0
 10 12  1  0  0  0
 12 13  1  0  0  0
 12 22  2  0  0  0
 13 14  1  0  0  0
 14 20  1  0  0  0
 14 15  2  0  0  0
 15 16  1  0  0  0
 15 46  1  0  0  0
 16 17  2  0  0  0
 16 47  1  0  0  0
 17 18  1  0  0  0
 17 19  1  0  0  0
 19 20  2  0  0  0
 19 48  1  0  0  0
 20 21  1  0  0  0
 22 23  1  0  0  0
 22 49  1  0  0  0
 23 35  2  0  0  0
 23 24  1  0  0  0
 24 25  2  0  0  0
 24 50  1  0  0  0
 25 26  1  0  0  0
 26 27  1  0  0  0
 26 34  2  0  0  0
 27 28  1  0  0  0
 27 51  1  0  0  0
 28 33  1  0  0  0
 28 29  1  0  0  0
 28 52  1  0  0  0
 29 30  1  0  0  0
 29 53  1  0  0  0
 29 54  1  0  0  0
 30 31  1  0  0  0
 30 55  1  0  0  0
 30 56  1  0  0  0
 31 32  1  0  0  0
 32 33  1  0  0  0
 32 57  1  0  0  0
 32 58  1  0  0  0
 33 59  1  0  0  0
 33 60  1  0  0  0
 34 35  1  0  0  0
 36 37  1  0  0  0
 36 61  1  0  0  0
 36 62  1  0  0  0
 37 63  1  0  0  0
 37 64  1  0  0  0
M  END
> <s_m_source_file>
/home/user-home/yujie/0_PBCNetv2/data/FEP/p38/inp_ligprep.csv

> <i_m_source_file_index>
10

> <i_lp_mmshare_version>
51139

> <i_f3d_flags>
0

> <s_epik_input>
W0NIMl0xW0NIMl1PW0NIMl1bQ0gyXVtDSF0xW05IXWMobltjSF0yKW5jKGMyMyluKFtDSF0oW0NIMl1bQ0gyXTQpW0NIMl1bQ0gyXU40Uyg9TykoPU8pW0NIM10pYyg9TyljKFtjSF0zKU9jNVtjSF1bY0hdYyhGKVtjSF1jNUY=

> <s_epik_cmdline>
J2VwaWtfcHl0aG9uJywgJy1waHQnLCAnMi4wJywgJy1waCcsICc3LjQnLCAnLXRuJywgJzgnLCAnLW1hJywgJzIwMCcsICctaW1hZScsICc8aW5maWxlLm1hZT4nLCAnLW9tYWUnLCAnPG91dGZpbGUubWFlPic=

> <r_lp_tautomer_probability>
1

> <r_epik_Ionization_Penalty>
  0.0000

> <r_epik_Ionization_Penalty_Charging>
  0.0000

> <r_epik_Ionization_Penalty_Neutral>
  0.0000

> <r_epik_State_Penalty>
 -0.0000

> <r_epik_Charging_Adjusted_Penalty>
1.88284e-06

> <i_epik_Tot_Q>
0

> <i_epik_Tot_abs_Q>
0

> <s_epik_Chemistry_Notes>
This compound has an imine and may undergo hydrolysis.

> <s_lp_Force_Field>
OPLS3e

> <r_lp_Energy>
70.6004

> <b_lp_Chiralities_Consistent>
1

> <s_lp_Variant>
p38_p38a_2u-1

> <s_i_glide_gridfile>
p38-001-gridgen

> <i_i_glide_lignum>
10

> <i_i_glide_rotatable_bonds>
6

> <r_i_docking_score>
-10.1890826620352

> <r_i_glide_ligand_efficiency>
-0.275380612487438

> <r_i_glide_ligand_efficiency_sa>
-0.917629293345793

> <r_i_glide_ligand_efficiency_ln>
-2.2097731634073

> <r_i_glide_gscore>
-10.1890826620352

> <r_i_glide_lipo>
-3.39000736753917

> <r_i_glide_hbond>
-0.866591008826286

> <r_i_glide_metal>
-0

> <r_i_glide_rewards>
-2.23656681687062

> <r_i_glide_evdw>
-53.0048789978027

> <r_i_glide_ecoul>
-8.89548778533936

> <r_i_glide_erotb>
0.359885787776874

> <r_i_glide_esite>
-0.0712361388849597

> <r_i_glide_emodel>
-97.4275665811798

> <r_i_glide_energy>
-61.9003667831421

> <r_i_glide_einternal>
2.22171664237976

> <i_i_glide_confnum>
5

> <i_i_glide_posenum>
212

> <r_i_glide_eff_state_penalty>
-0

$$$$
