/home/yujie/leadopt/data/result/selection/sEH/lig_11h.sdf:1
                    3D
 Schrodinger Suite 2024-1.
 60 63  0  0  1  0            999 V2000
   -1.3288  -15.3329   25.7456 O   0  0  0  0  0  0
   -1.0450  -14.7570   26.7984 C   0  0  0  0  0  0
    0.1499  -13.8297   26.8990 C   0  0  0  0  0  0
    1.1236  -13.8528   25.8938 C   0  0  0  0  0  0
    2.2484  -13.0301   25.9106 C   0  0  0  0  0  0
    2.3929  -12.1541   26.9925 C   0  0  0  0  0  0
    1.4098  -12.0832   28.0263 C   0  0  0  0  0  0
    1.8349  -11.0653   28.9354 C   0  0  0  0  0  0
    3.0067  -10.5452   28.4349 C   0  0  0  0  0  0
    3.3972  -11.2508   27.3185 N   0  0  0  0  0  0
    4.7990  -10.8647   26.3879 S   0  0  0  0  0  0
    6.1550  -10.5828   27.6990 C   0  0  0  0  0  0
    7.4687  -10.2146   26.9878 C   0  0  0  0  0  0
    6.3112  -11.8263   28.5937 C   0  0  0  0  0  0
    4.4807   -9.5972   25.7233 O   0  0  0  0  0  0
    5.1309  -12.0649   25.6129 O   0  0  0  0  0  0
    0.2948  -12.9329   27.9713 C   0  0  0  0  0  0
   -1.7982  -14.9078   27.8972 N   0  0  0  0  0  0
   -2.9310  -15.8276   28.0422 C   0  0  0  0  0  0
   -2.5686  -17.3221   28.0932 C   0  0  0  0  0  0
   -3.4376  -18.3273   27.6102 C   0  0  0  0  0  0
   -4.8177  -17.9939   27.0261 C   0  0  0  0  0  0
   -5.5117  -17.2606   27.8949 F   0  0  0  0  0  0
   -4.6810  -17.3103   25.8897 F   0  0  0  0  0  0
   -5.5395  -19.0830   26.7579 F   0  0  0  0  0  0
   -3.0359  -19.6713   27.6869 C   0  0  0  0  0  0
   -1.7976  -20.0319   28.2265 C   0  0  0  0  0  0
   -1.3515  -21.3589   28.2972 N   0  0  0  0  0  0
   -2.4465  -22.7475   28.3220 S   0  0  0  0  0  0
   -1.2511  -24.1926   28.5969 C   0  0  0  0  0  0
   -0.7483  -24.4242   30.0023 C   0  0  0  0  0  0
   -1.7706  -25.3666   29.3932 C   0  0  0  0  0  0
   -3.3084  -22.5784   29.4972 O   0  0  0  0  0  0
   -3.0290  -22.8550   26.9807 O   0  0  0  0  0  0
   -0.9536  -19.0330   28.6972 C   0  0  0  0  0  0
   -1.3290  -17.6970   28.6283 C   0  0  0  0  0  0
    1.0216  -14.5329   25.0595 H   0  0  0  0  0  0
    2.9755  -13.0834   25.1153 H   0  0  0  0  0  0
    1.3284  -10.7301   29.8278 H   0  0  0  0  0  0
    3.6164   -9.7336   28.8064 H   0  0  0  0  0  0
    5.8352   -9.7329   28.2972 H   0  0  0  0  0  0
    8.2604   -9.9935   27.7048 H   0  0  0  0  0  0
    7.3423   -9.3332   26.3578 H   0  0  0  0  0  0
    7.8141  -11.0265   26.3463 H   0  0  0  0  0  0
    7.0588  -11.6543   29.3691 H   0  0  0  0  0  0
    5.3787  -12.0856   29.0938 H   0  0  0  0  0  0
    6.6207  -12.6975   28.0147 H   0  0  0  0  0  0
   -0.4495  -12.8718   28.7533 H   0  0  0  0  0  0
   -1.4542  -14.5333   28.7851 H   0  0  0  0  0  0
   -3.4365  -15.5793   28.9775 H   0  0  0  0  0  0
   -3.6487  -15.6150   27.2526 H   0  0  0  0  0  0
   -3.6922  -20.4430   27.3143 H   0  0  0  0  0  0
   -0.4433  -21.5057   28.7118 H   0  0  0  0  0  0
   -0.5991  -24.3474   27.7377 H   0  0  0  0  0  0
    0.2710  -24.7845   30.1466 H   0  0  0  0  0  0
   -1.0583  -23.7340   30.7866 H   0  0  0  0  0  0
   -2.7995  -25.3433   29.7560 H   0  0  0  0  0  0
   -1.4605  -26.3703   29.0973 H   0  0  0  0  0  0
   -0.0069  -19.2893   29.1471 H   0  0  0  0  0  0
   -0.6517  -16.9504   29.0196 H   0  0  0  0  0  0
  1  2  2  0  0  0
  2  3  1  0  0  0
  2 18  1  0  0  0
  3 17  1  0  0  0
  3  4  2  0  0  0
  4  5  1  0  0  0
  4 37  1  0  0  0
  5  6  2  0  0  0
  5 38  1  0  0  0
  6 10  1  0  0  0
  6  7  1  0  0  0
  7  8  1  0  0  0
  7 17  2  0  0  0
  8  9  2  0  0  0
  8 39  1  0  0  0
  9 10  1  0  0  0
  9 40  1  0  0  0
 10 11  1  0  0  0
 11 12  1  0  0  0
 11 15  2  0  0  0
 11 16  2  0  0  0
 12 13  1  0  0  0
 12 14  1  0  0  0
 12 41  1  0  0  0
 13 42  1  0  0  0
 13 43  1  0  0  0
 13 44  1  0  0  0
 14 45  1  0  0  0
 14 46  1  0  0  0
 14 47  1  0  0  0
 17 48  1  0  0  0
 18 19  1  0  0  0
 18 49  1  0  0  0
 19 20  1  0  0  0
 19 50  1  0  0  0
 19 51  1  0  0  0
 20 36  1  0  0  0
 20 21  2  0  0  0
 21 22  1  0  0  0
 21 26  1  0  0  0
 22 23  1  0  0  0
 22 24  1  0  0  0
 22 25  1  0  0  0
 26 27  2  0  0  0
 26 52  1  0  0  0
 27 28  1  0  0  0
 27 35  1  0  0  0
 28 29  1  0  0  0
 28 53  1  0  0  0
 29 30  1  0  0  0
 29 33  2  0  0  0
 29 34  2  0  0  0
 30 32  1  0  0  0
 30 31  1  0  0  0
 30 54  1  0  0  0
 31 32  1  0  0  0
 31 55  1  0  0  0
 31 56  1  0  0  0
 32 57  1  0  0  0
 32 58  1  0  0  0
 35 36  2  0  0  0
 35 59  1  0  0  0
 36 60  1  0  0  0
M  END
> <Tot Q>
0

> <Source File Index>
2

> <i_f3d_flags>
0

> <subgroup collapsed>
0

> <Ionization Penalty>
0.075

> <State Penalty>
0.0661

> <docking score>
-12.9839

> <glide emodel>
-132.993

> <glide gscore>
-13.05

> <Source File>
sEH_lig_11h_ligprepout_dock_SP_confgen_pv.maegz

> <Source Path>
C:\Users\yujie\Desktop\FT_and_sele\Jupyter\sEH_pose

> <entry id>
173

> <subgroup title>
sEH_lig_11h_ligprepout_dock_SP_confgen_pv

> <subgroupid>
sEH_lig_11h_ligprepout_dock_SP_confgen_pv

$$$$
