KAW
                    3D
 Schrodinger Suite 2024-1.
 69 72  0  0  1  0            999 V2000
   44.5211   48.0187   39.0345 C   0  0  0  0  0  0
   45.0342   49.2405   38.5382 C   0  0  0  0  0  0
   44.1914   50.1947   37.9295 C   0  0  0  0  0  0
   42.8118   49.9439   37.7933 C   0  0  0  0  0  0
   42.2686   48.7372   38.2664 C   0  0  0  0  0  0
   43.1167   47.7932   38.8748 C   0  0  0  0  0  0
   42.9025   46.5477   39.4261 N   0  0  0  0  0  0
   44.0699   46.0070   39.9244 C   0  0  0  0  0  0
   45.0980   46.8670   39.7228 C   0  0  0  0  0  0
   46.5152   46.6274   40.1702 C   0  0  0  0  0  0
   46.9971   47.3317   41.4655 C   0  0  1  0  0  0
   47.7036   48.6613   41.1213 C   0  0  0  0  0  0
   48.8923   48.5944   40.7301 O   0  0  0  0  0  0
   47.0861   49.7413   41.2474 O   0  5  0  0  0  0
   45.8474   47.5245   42.3584 N   0  0  0  0  0  0
   45.8545   47.4282   43.6938 C   0  0  0  0  0  0
   46.8822   47.2036   44.3319 O   0  0  0  0  0  0
   44.5010   47.6124   44.4041 C   0  0  0  0  0  0
   44.5341   47.3546   45.9343 C   0  0  0  0  0  0
   44.4602   45.8706   46.4055 C   0  0  0  0  0  0
   45.1637   45.0330   45.5284 O   0  0  0  0  0  0
   43.0931   45.5213   46.3995 O   0  0  0  0  0  0
   45.0909   45.6327   47.8127 C   0  0  2  0  0  0
   46.6242   45.9027   47.8751 C   0  0  0  0  0  0
   47.2578   45.6453   49.2354 C   0  0  0  0  0  0
   47.6131   44.3383   49.6355 C   0  0  0  0  0  0
   48.1827   44.1139   50.9041 C   0  0  0  0  0  0
   48.4214   45.1955   51.7719 C   0  0  0  0  0  0
   48.0918   46.5044   51.3687 C   0  0  0  0  0  0
   47.5137   46.7261   50.1051 C   0  0  0  0  0  0
   44.8287   44.2597   48.2557 N   0  0  0  0  0  0
   43.8354   43.8497   49.0562 C   0  0  0  0  0  0
   42.9934   44.6121   49.5287 O   0  0  0  0  0  0
   43.8340   42.3815   49.3842 C   0  0  0  0  0  0
   44.4924   41.4373   48.5579 C   0  0  0  0  0  0
   44.4284   40.0609   48.8470 C   0  0  0  0  0  0
   43.7079   39.6105   49.9690 C   0  0  0  0  0  0
   43.0533   40.5383   50.7997 C   0  0  0  0  0  0
   43.1147   41.9150   50.5089 C   0  0  0  0  0  0
   46.0882   49.4487   38.6415 H   0  0  0  0  0  0
   44.6062   51.1216   37.5635 H   0  0  0  0  0  0
   42.1736   50.6818   37.3278 H   0  0  0  0  0  0
   41.2126   48.5397   38.1685 H   0  0  0  0  0  0
   42.0111   46.0690   39.4776 H   0  0  0  0  0  0
   44.1641   45.0526   40.4212 H   0  0  0  0  0  0
   46.6232   45.5523   40.3179 H   0  0  0  0  0  0
   47.1788   46.8580   39.3339 H   0  0  0  0  0  0
   47.7432   46.6921   41.9448 H   0  0  0  0  0  0
   44.9799   47.7766   41.9094 H   0  0  0  0  0  0
   44.1932   48.6453   44.2349 H   0  0  0  0  0  0
   43.7433   46.9846   43.9340 H   0  0  0  0  0  0
   45.4138   47.8532   46.3331 H   0  0  0  0  0  0
   43.7048   47.9008   46.3899 H   0  0  0  0  0  0
   44.8913   44.1385   45.7128 H   0  0  0  0  0  0
   42.6065   46.1349   46.9428 H   0  0  0  0  0  0
   44.6195   46.3195   48.5118 H   0  0  0  0  0  0
   47.1523   45.2875   47.1449 H   0  0  0  0  0  0
   46.8488   46.9313   47.6006 H   0  0  0  0  0  0
   47.4423   43.5009   48.9760 H   0  0  0  0  0  0
   48.4418   43.1106   51.2095 H   0  0  0  0  0  0
   48.8600   45.0250   52.7430 H   0  0  0  0  0  0
   48.2786   47.3371   52.0316 H   0  0  0  0  0  0
   47.2648   47.7346   49.8045 H   0  0  0  0  0  0
   45.4721   43.5550   47.9336 H   0  0  0  0  0  0
   45.0230   41.7457   47.6679 H   0  0  0  0  0  0
   44.9131   39.3491   48.1948 H   0  0  0  0  0  0
   43.6449   38.5556   50.1868 H   0  0  0  0  0  0
   42.4923   40.1932   51.6557 H   0  0  0  0  0  0
   42.5910   42.6134   51.1483 H   0  0  0  0  0  0
  1  2  2  0  0  0
  1  6  1  0  0  0
  1  9  1  0  0  0
  2  3  1  0  0  0
  2 40  1  0  0  0
  3  4  2  0  0  0
  3 41  1  0  0  0
  4  5  1  0  0  0
  4 42  1  0  0  0
  5  6  2  0  0  0
  5 43  1  0  0  0
  6  7  1  0  0  0
  7  8  1  0  0  0
  7 44  1  0  0  0
  8  9  2  0  0  0
  8 45  1  0  0  0
  9 10  1  0  0  0
 10 11  1  0  0  0
 10 46  1  0  0  0
 10 47  1  0  0  0
 11 12  1  0  0  0
 11 15  1  0  0  0
 11 48  1  0  0  0
 12 13  2  0  0  0
 12 14  1  0  0  0
 15 16  1  0  0  0
 15 49  1  0  0  0
 16 17  2  0  0  0
 16 18  1  0  0  0
 18 19  1  0  0  0
 18 50  1  0  0  0
 18 51  1  0  0  0
 19 20  1  0  0  0
 19 52  1  0  0  0
 19 53  1  0  0  0
 20 21  1  0  0  0
 20 22  1  0  0  0
 20 23  1  0  0  0
 21 54  1  0  0  0
 22 55  1  0  0  0
 23 24  1  0  0  0
 23 31  1  0  0  0
 23 56  1  0  0  0
 24 25  1  0  0  0
 24 57  1  0  0  0
 24 58  1  0  0  0
 25 26  2  0  0  0
 25 30  1  0  0  0
 26 27  1  0  0  0
 26 59  1  0  0  0
 27 28  2  0  0  0
 27 60  1  0  0  0
 28 29  1  0  0  0
 28 61  1  0  0  0
 29 30  2  0  0  0
 29 62  1  0  0  0
 30 63  1  0  0  0
 31 32  1  0  0  0
 31 64  1  0  0  0
 32 33  2  0  0  0
 32 34  1  0  0  0
 34 35  2  0  0  0
 34 39  1  0  0  0
 35 36  1  0  0  0
 35 65  1  0  0  0
 36 37  2  0  0  0
 36 66  1  0  0  0
 37 38  1  0  0  0
 37 67  1  0  0  0
 38 39  2  0  0  0
 38 68  1  0  0  0
 39 69  1  0  0  0
M  CHG  1  14  -1
M  END
> <i_epik_Tot_Q>
-1

> <i_epik_Tot_abs_Q>
1

> <i_f3d_flags>
0

> <i_i_glide_confnum>
465

> <i_i_glide_lignum>
1

> <i_i_glide_posenum>
353

> <i_i_glide_rotatable_bonds>
16

> <i_lp_mmshare_version>
65135

> <i_m_Source_File_Index>
1

> <i_m_source_file_index>
1

> <i_m_stars>
0

> <b_lp_Chiralities_Consistent>
1

> <b_m_subgroup_collapsed>
0

> <r_epik_Charging_Adjusted_Penalty>
0.000113601

> <r_epik_Ionization_Penalty>
0.0001

> <r_epik_Ionization_Penalty_Charging>
0.0001

> <r_epik_Ionization_Penalty_Neutral>
0

> <r_epik_State_Penalty>
0

> <r_i_docking_score>
-11.3286

> <r_i_glide_ecoul>
-28.5359

> <r_i_glide_eff_state_penalty>
0

> <r_i_glide_einternal>
14.6418

> <r_i_glide_emodel>
-153.851

> <r_i_glide_energy>
-85.8709

> <r_i_glide_erotb>
0.737397

> <r_i_glide_esite>
-0.142577

> <r_i_glide_evdw>
-57.3349

> <r_i_glide_gscore>
-11.3286

> <r_i_glide_hbond>
-1.01742

> <r_i_glide_ligand_efficiency>
-0.290477

> <r_i_glide_ligand_efficiency_ln>
-2.42917

> <r_i_glide_ligand_efficiency_sa>
-0.985069

> <r_i_glide_lipo>
-3.6006

> <r_i_glide_metal>
0

> <r_i_glide_rewards>
-0.438653

> <r_lp_Energy>
37.4878

> <r_lp_tautomer_probability>
1

> <s_epik_cmdline>
J2VwaWtfcHl0aG9uJywgJy1waCcsICc3LjAnLCAnLXRuJywgJzgnLCAnLW1hJywgJzUwMCcsICctaW1hZScsICc8aW5maWxlLm1hZT4nLCAnLW9tYWUnLCAnPG91dGZpbGUubWFlPic=

> <s_epik_input>
W2NIXTFbY0hdW2NIXVtjSF1jKGMxMilbbkhdW2NIXWMyW0NIMl1bQ0BASF0oQyg9TylbT0hdKVtOSF1DKD1PKVtDSDJdW0NIMl1DKFtPSF0pKFtPSF0pW0NASF0oW0NIMl1jM1tjSF1bY0hdW2NIXVtjSF1bY0hdMylbTkhdQyg9TyljNFtjSF1bY0hdW2NIXVtjSF1bY0hdNA==

> <s_i_glide_gridfile>
glide-grid_P12821_MT_V379S_V380T

> <s_lp_Force_Field>
S-OPLS

> <s_lp_Variant>
KAW-1

> <s_m_Source_File>
glide-dock_SP_P12821_MT_V379S_V380T_pv.maegz

> <s_m_Source_Path>
D:\project\glide-dock_SP_P12821_MT_V379S_V380T

> <s_m_entry_id>
1152

> <s_m_entry_name>
Structure999

> <s_m_job_name>
glide-dock_SP_P12821_MT_V379S_V380T

> <s_m_source_file>
ligprep_KAW.maegz

> <s_m_subgroup_title>
glide-dock_SP_P12821_MT_V379S_V380T_pv

> <s_m_subgroupid>
glide-dock_SP_P12821_MT_V379S_V380T_pv

> <s_pdb_PDB_TITLE>
WT_3BKL_complex

> <s_pdb_PDB_format_version>
3.0

$$$$
