KAW
                    3D
 Schrodinger Suite 2024-1.
 69 72  0  0  1  0            999 V2000
   43.8322   47.6873   39.3226 C   0  0  0  0  0  0
   42.9129   46.8134   39.9531 C   0  0  0  0  0  0
   41.5208   47.0149   39.8466 C   0  0  0  0  0  0
   41.0093   48.1031   39.1138 C   0  0  0  0  0  0
   41.8931   48.9896   38.4718 C   0  0  0  0  0  0
   43.2795   48.7729   38.5755 C   0  0  0  0  0  0
   44.3795   49.4300   38.0655 N   0  0  0  0  0  0
   45.5590   48.8174   38.4376 C   0  0  0  0  0  0
   45.2915   47.7561   39.2301 C   0  0  0  0  0  0
   46.3133   46.8334   39.8355 C   0  0  0  0  0  0
   46.8105   47.1243   41.2742 C   0  0  1  0  0  0
   47.8165   48.3044   41.3466 C   0  0  0  0  0  0
   48.1153   48.7256   42.4765 O   0  0  0  0  0  0
   48.4021   48.7255   40.3246 O   0  5  0  0  0  0
   45.6369   47.3307   42.1414 N   0  0  0  0  0  0
   45.5996   47.1260   43.4684 C   0  0  0  0  0  0
   46.5717   46.7256   44.1042 O   0  0  0  0  0  0
   44.2820   47.3997   44.2084 C   0  0  0  0  0  0
   44.4192   47.2762   45.7514 C   0  0  0  0  0  0
   44.2978   45.8417   46.3474 C   0  0  0  0  0  0
   44.9154   44.8826   45.5247 O   0  0  0  0  0  0
   42.9194   45.5257   46.4000 O   0  0  0  0  0  0
   44.9689   45.6771   47.7476 C   0  0  2  0  0  0
   46.5000   45.9584   47.7489 C   0  0  0  0  0  0
   47.1691   45.7671   49.0996 C   0  0  0  0  0  0
   47.3782   46.8828   49.9336 C   0  0  0  0  0  0
   47.9930   46.7252   51.1908 C   0  0  0  0  0  0
   48.4017   45.4481   51.6190 C   0  0  0  0  0  0
   48.2016   44.3304   50.7863 C   0  0  0  0  0  0
   47.5975   44.4907   49.5246 C   0  0  0  0  0  0
   44.7560   44.3113   48.2364 N   0  0  0  0  0  0
   43.7873   43.8794   49.0553 C   0  0  0  0  0  0
   42.9249   44.6176   49.5246 O   0  0  0  0  0  0
   43.8211   42.4109   49.3833 C   0  0  0  0  0  0
   44.5154   41.4852   48.5636 C   0  0  0  0  0  0
   44.4806   40.1068   48.8507 C   0  0  0  0  0  0
   43.7589   39.6373   49.9634 C   0  0  0  0  0  0
   43.0700   40.5476   50.7857 C   0  0  0  0  0  0
   43.0969   41.9253   50.4950 C   0  0  0  0  0  0
   43.2810   45.9717   40.5210 H   0  0  0  0  0  0
   40.8391   46.3257   40.3246 H   0  0  0  0  0  0
   39.9411   48.2532   39.0421 H   0  0  0  0  0  0
   41.5081   49.8245   37.9044 H   0  0  0  0  0  0
   44.3453   50.2558   37.4853 H   0  0  0  0  0  0
   46.5550   49.1256   38.1589 H   0  0  0  0  0  0
   45.8868   45.8303   39.8090 H   0  0  0  0  0  0
   47.1669   46.7873   39.1595 H   0  0  0  0  0  0
   47.3550   46.2431   41.6181 H   0  0  0  0  0  0
   44.8059   47.6884   41.6928 H   0  0  0  0  0  0
   43.9680   48.4144   43.9608 H   0  0  0  0  0  0
   43.5061   46.7329   43.8327 H   0  0  0  0  0  0
   45.3595   47.7423   46.0334 H   0  0  0  0  0  0
   43.7000   47.9294   46.2384 H   0  0  0  0  0  0
   45.7696   45.2206   45.2589 H   0  0  0  0  0  0
   42.4469   46.2302   46.8510 H   0  0  0  0  0  0
   44.5155   46.3852   48.4377 H   0  0  0  0  0  0
   47.0103   45.3144   47.0324 H   0  0  0  0  0  0
   46.7156   46.9772   47.4333 H   0  0  0  0  0  0
   47.0649   47.8664   49.6123 H   0  0  0  0  0  0
   48.1497   47.5839   51.8274 H   0  0  0  0  0  0
   48.8717   45.3271   52.5840 H   0  0  0  0  0  0
   48.5207   43.3517   51.1127 H   0  0  0  0  0  0
   47.4576   43.6286   48.8896 H   0  0  0  0  0  0
   45.4292   43.6275   47.9282 H   0  0  0  0  0  0
   45.0558   41.8058   47.6847 H   0  0  0  0  0  0
   44.9962   39.4090   48.2069 H   0  0  0  0  0  0
   43.7278   38.5802   50.1833 H   0  0  0  0  0  0
   42.5155   40.1890   51.6398 H   0  0  0  0  0  0
   42.5492   42.6097   51.1276 H   0  0  0  0  0  0
  1  2  2  0  0  0
  1  6  1  0  0  0
  1  9  1  0  0  0
  2  3  1  0  0  0
  2 40  1  0  0  0
  3  4  2  0  0  0
  3 41  1  0  0  0
  4  5  1  0  0  0
  4 42  1  0  0  0
  5  6  2  0  0  0
  5 43  1  0  0  0
  6  7  1  0  0  0
  7  8  1  0  0  0
  7 44  1  0  0  0
  8  9  2  0  0  0
  8 45  1  0  0  0
  9 10  1  0  0  0
 10 11  1  0  0  0
 10 46  1  0  0  0
 10 47  1  0  0  0
 11 12  1  0  0  0
 11 15  1  0  0  0
 11 48  1  0  0  0
 12 13  2  0  0  0
 12 14  1  0  0  0
 15 16  1  0  0  0
 15 49  1  0  0  0
 16 17  2  0  0  0
 16 18  1  0  0  0
 18 19  1  0  0  0
 18 50  1  0  0  0
 18 51  1  0  0  0
 19 20  1  0  0  0
 19 52  1  0  0  0
 19 53  1  0  0  0
 20 21  1  0  0  0
 20 22  1  0  0  0
 20 23  1  0  0  0
 21 54  1  0  0  0
 22 55  1  0  0  0
 23 24  1  0  0  0
 23 31  1  0  0  0
 23 56  1  0  0  0
 24 25  1  0  0  0
 24 57  1  0  0  0
 24 58  1  0  0  0
 25 26  2  0  0  0
 25 30  1  0  0  0
 26 27  1  0  0  0
 26 59  1  0  0  0
 27 28  2  0  0  0
 27 60  1  0  0  0
 28 29  1  0  0  0
 28 61  1  0  0  0
 29 30  2  0  0  0
 29 62  1  0  0  0
 30 63  1  0  0  0
 31 32  1  0  0  0
 31 64  1  0  0  0
 32 33  2  0  0  0
 32 34  1  0  0  0
 34 35  2  0  0  0
 34 39  1  0  0  0
 35 36  1  0  0  0
 35 65  1  0  0  0
 36 37  2  0  0  0
 36 66  1  0  0  0
 37 38  1  0  0  0
 37 67  1  0  0  0
 38 39  2  0  0  0
 38 68  1  0  0  0
 39 69  1  0  0  0
M  CHG  1  14  -1
M  END
> <i_epik_Tot_Q>
-1

> <i_epik_Tot_abs_Q>
1

> <i_f3d_flags>
0

> <i_i_glide_confnum>
454

> <i_i_glide_lignum>
1

> <i_i_glide_posenum>
338

> <i_i_glide_rotatable_bonds>
16

> <i_lp_mmshare_version>
65135

> <i_m_Source_File_Index>
1

> <i_m_source_file_index>
1

> <i_m_stars>
0

> <b_lp_Chiralities_Consistent>
1

> <b_m_subgroup_collapsed>
0

> <r_epik_Charging_Adjusted_Penalty>
0.000113601

> <r_epik_Ionization_Penalty>
0.0001

> <r_epik_Ionization_Penalty_Charging>
0.0001

> <r_epik_Ionization_Penalty_Neutral>
0

> <r_epik_State_Penalty>
0

> <r_i_docking_score>
-11.7716

> <r_i_glide_ecoul>
-33.9451

> <r_i_glide_eff_state_penalty>
0

> <r_i_glide_einternal>
13.3028

> <r_i_glide_emodel>
-178.17

> <r_i_glide_energy>
-88.7073

> <r_i_glide_erotb>
0.516178

> <r_i_glide_esite>
-0.255493

> <r_i_glide_evdw>
-54.7621

> <r_i_glide_gscore>
-11.7716

> <r_i_glide_hbond>
-0.798671

> <r_i_glide_ligand_efficiency>
-0.301835

> <r_i_glide_ligand_efficiency_ln>
-2.52416

> <r_i_glide_ligand_efficiency_sa>
-1.02359

> <r_i_glide_lipo>
-3.57666

> <r_i_glide_metal>
0

> <r_i_glide_rewards>
-0.918806

> <r_lp_Energy>
37.4878

> <r_lp_tautomer_probability>
1

> <s_epik_cmdline>
J2VwaWtfcHl0aG9uJywgJy1waCcsICc3LjAnLCAnLXRuJywgJzgnLCAnLW1hJywgJzUwMCcsICctaW1hZScsICc8aW5maWxlLm1hZT4nLCAnLW9tYWUnLCAnPG91dGZpbGUubWFlPic=

> <s_epik_input>
W2NIXTFbY0hdW2NIXVtjSF1jKGMxMilbbkhdW2NIXWMyW0NIMl1bQ0BASF0oQyg9TylbT0hdKVtOSF1DKD1PKVtDSDJdW0NIMl1DKFtPSF0pKFtPSF0pW0NASF0oW0NIMl1jM1tjSF1bY0hdW2NIXVtjSF1bY0hdMylbTkhdQyg9TyljNFtjSF1bY0hdW2NIXVtjSF1bY0hdNA==

> <s_i_glide_gridfile>
glide-grid_P12821_MT_V379S

> <s_lp_Force_Field>
S-OPLS

> <s_lp_Variant>
KAW-1

> <s_m_Source_File>
glide-dock_SP_P12821_MT_V379S_pv.maegz

> <s_m_Source_Path>
D:\project\glide-dock_SP_P12821_MT_V379S

> <s_m_entry_id>
1132

> <s_m_entry_name>
Structure999

> <s_m_job_name>
glide-dock_SP_P12821_MT_V379S

> <s_m_source_file>
ligprep_KAW.maegz

> <s_m_subgroup_title>
glide-dock_SP_P12821_MT_V379S_pv

> <s_m_subgroupid>
glide-dock_SP_P12821_MT_V379S_pv

> <s_pdb_PDB_TITLE>
WT_3BKL_complex

> <s_pdb_PDB_format_version>
3.0

$$$$
