KAW
                    3D
 Schrodinger Suite 2024-1.
 69 72  0  0  1  0            999 V2000
   43.9439   47.3323   39.1852 C   0  0  0  0  0  0
   43.0896   46.3348   39.7126 C   0  0  0  0  0  0
   41.6958   46.3891   39.5127 C   0  0  0  0  0  0
   41.1166   47.4527   38.7951 C   0  0  0  0  0  0
   41.9357   48.4631   38.2577 C   0  0  0  0  0  0
   43.3278   48.3901   38.4484 C   0  0  0  0  0  0
   44.3827   49.1839   38.0468 N   0  0  0  0  0  0
   45.5937   48.6796   38.4782 C   0  0  0  0  0  0
   45.3873   47.5560   39.2006 C   0  0  0  0  0  0
   46.4477   46.7064   39.8429 C   0  0  0  0  0  0
   46.8933   47.0509   41.2864 C   0  0  1  0  0  0
   47.8677   48.2549   41.3456 C   0  0  0  0  0  0
   48.1597   48.6820   42.4764 O   0  0  0  0  0  0
   48.4321   48.6820   40.3123 O   0  5  0  0  0  0
   45.6944   47.2654   42.1172 N   0  0  0  0  0  0
   45.6239   47.0821   43.4466 C   0  0  0  0  0  0
   46.5760   46.6820   44.1126 O   0  0  0  0  0  0
   44.2903   47.3678   44.1514 C   0  0  0  0  0  0
   44.3871   47.2672   45.6997 C   0  0  0  0  0  0
   44.3255   45.8382   46.3203 C   0  0  0  0  0  0
   44.9598   44.8774   45.5122 O   0  0  0  0  0  0
   42.9597   45.4821   46.3932 O   0  0  0  0  0  0
   45.0083   45.7200   47.7202 C   0  0  2  0  0  0
   46.5343   46.0220   47.7145 C   0  0  0  0  0  0
   47.1958   45.8572   49.0737 C   0  0  0  0  0  0
   47.6438   44.5920   49.5121 C   0  0  0  0  0  0
   48.2166   44.4467   50.7899 C   0  0  0  0  0  0
   48.3678   45.5691   51.6263 C   0  0  0  0  0  0
   47.9418   46.8358   51.1847 C   0  0  0  0  0  0
   47.3598   46.9793   49.9102 C   0  0  0  0  0  0
   44.8080   44.3656   48.2468 N   0  0  0  0  0  0
   43.8311   43.9409   49.0599 C   0  0  0  0  0  0
   42.9613   44.6819   49.5121 O   0  0  0  0  0  0
   43.8646   42.4748   49.3980 C   0  0  0  0  0  0
   44.5597   41.5450   48.5833 C   0  0  0  0  0  0
   44.5222   40.1681   48.8766 C   0  0  0  0  0  0
   43.8002   39.7047   49.9915 C   0  0  0  0  0  0
   43.1130   40.6193   50.8104 C   0  0  0  0  0  0
   43.1402   41.9954   50.5123 C   0  0  0  0  0  0
   43.5118   45.5118   40.2700 H   0  0  0  0  0  0
   41.0614   45.6096   39.9124 H   0  0  0  0  0  0
   40.0451   47.4834   38.6598 H   0  0  0  0  0  0
   41.5011   49.2824   37.7035 H   0  0  0  0  0  0
   44.3002   50.0310   37.5003 H   0  0  0  0  0  0
   46.5681   49.1001   38.2860 H   0  0  0  0  0  0
   46.0819   45.6796   39.8268 H   0  0  0  0  0  0
   47.3140   46.6976   39.1826 H   0  0  0  0  0  0
   47.4491   46.1946   41.6730 H   0  0  0  0  0  0
   44.8756   47.6153   41.6409 H   0  0  0  0  0  0
   43.9857   48.3798   43.8820 H   0  0  0  0  0  0
   43.5206   46.7005   43.7656 H   0  0  0  0  0  0
   45.2929   47.7854   46.0061 H   0  0  0  0  0  0
   43.6068   47.8816   46.1456 H   0  0  0  0  0  0
   45.8083   45.2248   45.2387 H   0  0  0  0  0  0
   42.4768   46.1778   46.8463 H   0  0  0  0  0  0
   44.5593   46.4446   48.3954 H   0  0  0  0  0  0
   47.0528   45.3708   47.0106 H   0  0  0  0  0  0
   46.7324   47.0384   47.3783 H   0  0  0  0  0  0
   47.5366   43.7255   48.8769 H   0  0  0  0  0  0
   48.5482   43.4756   51.1263 H   0  0  0  0  0  0
   48.8127   45.4603   52.6046 H   0  0  0  0  0  0
   48.0602   47.6984   51.8242 H   0  0  0  0  0  0
   47.0286   47.9541   49.5800 H   0  0  0  0  0  0
   45.4884   43.6801   47.9592 H   0  0  0  0  0  0
   45.0998   41.8613   47.7025 H   0  0  0  0  0  0
   45.0363   39.4666   48.2358 H   0  0  0  0  0  0
   43.7683   38.6486   50.2160 H   0  0  0  0  0  0
   42.5596   40.2650   51.6672 H   0  0  0  0  0  0
   42.5927   42.6822   51.1420 H   0  0  0  0  0  0
  1  2  2  0  0  0
  1  6  1  0  0  0
  1  9  1  0  0  0
  2  3  1  0  0  0
  2 40  1  0  0  0
  3  4  2  0  0  0
  3 41  1  0  0  0
  4  5  1  0  0  0
  4 42  1  0  0  0
  5  6  2  0  0  0
  5 43  1  0  0  0
  6  7  1  0  0  0
  7  8  1  0  0  0
  7 44  1  0  0  0
  8  9  2  0  0  0
  8 45  1  0  0  0
  9 10  1  0  0  0
 10 11  1  0  0  0
 10 46  1  0  0  0
 10 47  1  0  0  0
 11 12  1  0  0  0
 11 15  1  0  0  0
 11 48  1  0  0  0
 12 13  2  0  0  0
 12 14  1  0  0  0
 15 16  1  0  0  0
 15 49  1  0  0  0
 16 17  2  0  0  0
 16 18  1  0  0  0
 18 19  1  0  0  0
 18 50  1  0  0  0
 18 51  1  0  0  0
 19 20  1  0  0  0
 19 52  1  0  0  0
 19 53  1  0  0  0
 20 21  1  0  0  0
 20 22  1  0  0  0
 20 23  1  0  0  0
 21 54  1  0  0  0
 22 55  1  0  0  0
 23 24  1  0  0  0
 23 31  1  0  0  0
 23 56  1  0  0  0
 24 25  1  0  0  0
 24 57  1  0  0  0
 24 58  1  0  0  0
 25 26  2  0  0  0
 25 30  1  0  0  0
 26 27  1  0  0  0
 26 59  1  0  0  0
 27 28  2  0  0  0
 27 60  1  0  0  0
 28 29  1  0  0  0
 28 61  1  0  0  0
 29 30  2  0  0  0
 29 62  1  0  0  0
 30 63  1  0  0  0
 31 32  1  0  0  0
 31 64  1  0  0  0
 32 33  2  0  0  0
 32 34  1  0  0  0
 34 35  2  0  0  0
 34 39  1  0  0  0
 35 36  1  0  0  0
 35 65  1  0  0  0
 36 37  2  0  0  0
 36 66  1  0  0  0
 37 38  1  0  0  0
 37 67  1  0  0  0
 38 39  2  0  0  0
 38 68  1  0  0  0
 39 69  1  0  0  0
M  CHG  1  14  -1
M  END
> <i_epik_Tot_Q>
-1

> <i_epik_Tot_abs_Q>
1

> <i_f3d_flags>
0

> <i_i_glide_confnum>
455

> <i_i_glide_lignum>
1

> <i_i_glide_posenum>
21

> <i_i_glide_rotatable_bonds>
16

> <i_lp_mmshare_version>
65135

> <i_m_Source_File_Index>
1

> <i_m_source_file_index>
1

> <i_m_stars>
0

> <b_lp_Chiralities_Consistent>
1

> <b_m_subgroup_collapsed>
0

> <r_epik_Charging_Adjusted_Penalty>
0.000113601

> <r_epik_Ionization_Penalty>
0.0001

> <r_epik_Ionization_Penalty_Charging>
0.0001

> <r_epik_Ionization_Penalty_Neutral>
0

> <r_epik_State_Penalty>
0

> <r_i_docking_score>
-11.7522

> <r_i_glide_ecoul>
-34.1005

> <r_i_glide_eff_state_penalty>
0

> <r_i_glide_einternal>
14.3392

> <r_i_glide_emodel>
-179.64

> <r_i_glide_energy>
-89.4844

> <r_i_glide_erotb>
0.516178

> <r_i_glide_esite>
-0.246441

> <r_i_glide_evdw>
-55.3839

> <r_i_glide_gscore>
-11.7522

> <r_i_glide_hbond>
-0.785425

> <r_i_glide_ligand_efficiency>
-0.301339

> <r_i_glide_ligand_efficiency_ln>
-2.52001

> <r_i_glide_ligand_efficiency_sa>
-1.02191

> <r_i_glide_lipo>
-3.4944

> <r_i_glide_metal>
0

> <r_i_glide_rewards>
-0.972945

> <r_lp_Energy>
37.4878

> <r_lp_tautomer_probability>
1

> <s_epik_cmdline>
J2VwaWtfcHl0aG9uJywgJy1waCcsICc3LjAnLCAnLXRuJywgJzgnLCAnLW1hJywgJzUwMCcsICctaW1hZScsICc8aW5maWxlLm1hZT4nLCAnLW9tYWUnLCAnPG91dGZpbGUubWFlPic=

> <s_epik_input>
W2NIXTFbY0hdW2NIXVtjSF1jKGMxMilbbkhdW2NIXWMyW0NIMl1bQ0BASF0oQyg9TylbT0hdKVtOSF1DKD1PKVtDSDJdW0NIMl1DKFtPSF0pKFtPSF0pW0NASF0oW0NIMl1jM1tjSF1bY0hdW2NIXVtjSF1bY0hdMylbTkhdQyg9TyljNFtjSF1bY0hdW2NIXVtjSF1bY0hdNA==

> <s_i_glide_gridfile>
glide-grid_P12821_MT_E376D

> <s_lp_Force_Field>
S-OPLS

> <s_lp_Variant>
KAW-1

> <s_m_Source_File>
glide-dock_SP_P12821_MT_E376D_pv.maegz

> <s_m_Source_Path>
D:\project\glide-dock_SP_P12821_MT_E376D

> <s_m_entry_id>
1035

> <s_m_entry_name>
Structure999

> <s_m_job_name>
glide-dock_SP_P12821_MT_E376D

> <s_m_source_file>
ligprep_KAW.maegz

> <s_m_subgroup_title>
glide-dock_SP_P12821_MT_E376D_pv

> <s_m_subgroupid>
glide-dock_SP_P12821_MT_E376D_pv

> <s_pdb_PDB_TITLE>
WT_3BKL_complex

> <s_pdb_PDB_format_version>
3.0

$$$$
