KAW
                    3D
 Schrodinger Suite 2024-1.
 69 72  0  0  1  0            999 V2000
   44.4326   48.0457   39.0235 C   0  0  0  0  0  0
   44.9880   49.2508   38.5309 C   0  0  0  0  0  0
   44.1831   50.2277   37.9089 C   0  0  0  0  0  0
   42.7976   50.0209   37.7599 C   0  0  0  0  0  0
   42.2117   48.8318   38.2320 C   0  0  0  0  0  0
   43.0241   47.8646   38.8508 C   0  0  0  0  0  0
   42.7646   46.6276   39.4058 N   0  0  0  0  0  0
   43.9104   46.0496   39.9101 C   0  0  0  0  0  0
   44.9665   46.8745   39.7161 C   0  0  0  0  0  0
   46.3731   46.5824   40.1689 C   0  0  0  0  0  0
   46.8654   47.2150   41.4994 C   0  0  1  0  0  0
   47.7270   48.4631   41.2159 C   0  0  0  0  0  0
   47.1828   49.5825   41.1076 O   0  0  0  0  0  0
   48.9614   48.2815   41.1078 O   0  5  0  0  0  0
   45.7091   47.5089   42.3587 N   0  0  0  0  0  0
   45.6751   47.3920   43.6920 C   0  0  0  0  0  0
   46.6645   47.0808   44.3529 O   0  0  0  0  0  0
   44.3282   47.6282   44.3940 C   0  0  0  0  0  0
   44.3721   47.3647   45.9223 C   0  0  0  0  0  0
   44.3173   45.8811   46.3982 C   0  0  0  0  0  0
   44.9615   45.0095   45.5072 O   0  0  0  0  0  0
   42.9613   45.4813   46.4649 O   0  0  0  0  0  0
   45.0147   45.6497   47.7696 C   0  0  2  0  0  0
   46.5484   45.9044   47.7662 C   0  0  0  0  0  0
   47.1902   45.7267   49.1301 C   0  0  0  0  0  0
   47.6106   44.4528   49.5695 C   0  0  0  0  0  0
   48.1733   44.2969   50.8503 C   0  0  0  0  0  0
   48.3403   45.4166   51.6874 C   0  0  0  0  0  0
   47.9372   46.6912   51.2453 C   0  0  0  0  0  0
   47.3618   46.8449   49.9690 C   0  0  0  0  0  0
   44.7730   44.2708   48.2015 N   0  0  0  0  0  0
   43.9821   43.8828   49.2097 C   0  0  0  0  0  0
   43.3615   44.6802   49.9077 O   0  0  0  0  0  0
   43.8868   42.3982   49.4462 C   0  0  0  0  0  0
   43.0831   41.9099   50.5009 C   0  0  0  0  0  0
   42.9626   40.5261   50.7293 C   0  0  0  0  0  0
   43.6430   39.6108   49.9061 C   0  0  0  0  0  0
   44.4453   40.0813   48.8515 C   0  0  0  0  0  0
   44.5708   41.4656   48.6261 C   0  0  0  0  0  0
   46.0478   49.4270   38.6442 H   0  0  0  0  0  0
   44.6277   51.1415   37.5418 H   0  0  0  0  0  0
   42.1879   50.7763   37.2850 H   0  0  0  0  0  0
   41.1498   48.6676   38.1241 H   0  0  0  0  0  0
   41.8573   46.1800   39.4671 H   0  0  0  0  0  0
   43.9671   45.0916   40.4065 H   0  0  0  0  0  0
   46.4442   45.5009   40.2775 H   0  0  0  0  0  0
   47.0501   46.8188   39.3471 H   0  0  0  0  0  0
   47.5147   46.4881   41.9924 H   0  0  0  0  0  0
   44.8732   47.8193   41.8838 H   0  0  0  0  0  0
   44.0523   48.6697   44.2250 H   0  0  0  0  0  0
   43.5504   47.0270   43.9239 H   0  0  0  0  0  0
   45.2564   47.8652   46.3090 H   0  0  0  0  0  0
   43.5695   47.9176   46.4068 H   0  0  0  0  0  0
   45.8241   45.3651   45.3045 H   0  0  0  0  0  0
   42.4580   46.1615   46.9188 H   0  0  0  0  0  0
   44.5751   46.3452   48.4837 H   0  0  0  0  0  0
   47.0496   45.2301   47.0714 H   0  0  0  0  0  0
   46.7862   46.9104   47.4241 H   0  0  0  0  0  0
   47.4900   43.5890   48.9329 H   0  0  0  0  0  0
   48.4849   43.3201   51.1891 H   0  0  0  0  0  0
   48.7791   45.2989   52.6675 H   0  0  0  0  0  0
   48.0668   47.5516   51.8863 H   0  0  0  0  0  0
   47.0482   47.8253   49.6389 H   0  0  0  0  0  0
   45.2778   43.5549   47.7034 H   0  0  0  0  0  0
   42.5509   42.5965   51.1442 H   0  0  0  0  0  0
   42.3491   40.1684   51.5410 H   0  0  0  0  0  0
   43.5459   38.5497   50.0827 H   0  0  0  0  0  0
   44.9604   39.3813   48.2096 H   0  0  0  0  0  0
   45.1876   41.7840   47.7992 H   0  0  0  0  0  0
  1  2  2  0  0  0
  1  6  1  0  0  0
  1  9  1  0  0  0
  2  3  1  0  0  0
  2 40  1  0  0  0
  3  4  2  0  0  0
  3 41  1  0  0  0
  4  5  1  0  0  0
  4 42  1  0  0  0
  5  6  2  0  0  0
  5 43  1  0  0  0
  6  7  1  0  0  0
  7  8  1  0  0  0
  7 44  1  0  0  0
  8  9  2  0  0  0
  8 45  1  0  0  0
  9 10  1  0  0  0
 10 11  1  0  0  0
 10 46  1  0  0  0
 10 47  1  0  0  0
 11 12  1  0  0  0
 11 15  1  0  0  0
 11 48  1  0  0  0
 12 13  2  0  0  0
 12 14  1  0  0  0
 15 16  1  0  0  0
 15 49  1  0  0  0
 16 17  2  0  0  0
 16 18  1  0  0  0
 18 19  1  0  0  0
 18 50  1  0  0  0
 18 51  1  0  0  0
 19 20  1  0  0  0
 19 52  1  0  0  0
 19 53  1  0  0  0
 20 21  1  0  0  0
 20 22  1  0  0  0
 20 23  1  0  0  0
 21 54  1  0  0  0
 22 55  1  0  0  0
 23 24  1  0  0  0
 23 31  1  0  0  0
 23 56  1  0  0  0
 24 25  1  0  0  0
 24 57  1  0  0  0
 24 58  1  0  0  0
 25 26  2  0  0  0
 25 30  1  0  0  0
 26 27  1  0  0  0
 26 59  1  0  0  0
 27 28  2  0  0  0
 27 60  1  0  0  0
 28 29  1  0  0  0
 28 61  1  0  0  0
 29 30  2  0  0  0
 29 62  1  0  0  0
 30 63  1  0  0  0
 31 32  1  0  0  0
 31 64  1  0  0  0
 32 33  2  0  0  0
 32 34  1  0  0  0
 34 35  2  0  0  0
 34 39  1  0  0  0
 35 36  1  0  0  0
 35 65  1  0  0  0
 36 37  2  0  0  0
 36 66  1  0  0  0
 37 38  1  0  0  0
 37 67  1  0  0  0
 38 39  2  0  0  0
 38 68  1  0  0  0
 39 69  1  0  0  0
M  CHG  1  14  -1
M  END
> <i_epik_Tot_Q>
-1

> <i_epik_Tot_abs_Q>
1

> <i_f3d_flags>
0

> <i_i_glide_confnum>
454

> <i_i_glide_lignum>
1

> <i_i_glide_posenum>
318

> <i_i_glide_rotatable_bonds>
16

> <i_lp_mmshare_version>
65135

> <i_m_Source_File_Index>
1

> <i_m_source_file_index>
1

> <i_m_stars>
0

> <b_lp_Chiralities_Consistent>
1

> <b_m_subgroup_collapsed>
0

> <r_epik_Charging_Adjusted_Penalty>
0.000113601

> <r_epik_Ionization_Penalty>
0.0001

> <r_epik_Ionization_Penalty_Charging>
0.0001

> <r_epik_Ionization_Penalty_Neutral>
0

> <r_epik_State_Penalty>
0

> <r_i_docking_score>
-10.8793

> <r_i_glide_ecoul>
-32.6756

> <r_i_glide_eff_state_penalty>
0

> <r_i_glide_einternal>
14.6699

> <r_i_glide_emodel>
-171.456

> <r_i_glide_energy>
-89.254

> <r_i_glide_erotb>
0.737397

> <r_i_glide_esite>
-0.253783

> <r_i_glide_evdw>
-56.5784

> <r_i_glide_gscore>
-10.8793

> <r_i_glide_hbond>
-0.86674

> <r_i_glide_ligand_efficiency>
-0.278956

> <r_i_glide_ligand_efficiency_ln>
-2.33283

> <r_i_glide_ligand_efficiency_sa>
-0.945999

> <r_i_glide_lipo>
-3.62569

> <r_i_glide_metal>
0

> <r_i_glide_rewards>
-0.0415496

> <r_lp_Energy>
37.4878

> <r_lp_tautomer_probability>
1

> <s_epik_cmdline>
J2VwaWtfcHl0aG9uJywgJy1waCcsICc3LjAnLCAnLXRuJywgJzgnLCAnLW1hJywgJzUwMCcsICctaW1hZScsICc8aW5maWxlLm1hZT4nLCAnLW9tYWUnLCAnPG91dGZpbGUubWFlPic=

> <s_epik_input>
W2NIXTFbY0hdW2NIXVtjSF1jKGMxMilbbkhdW2NIXWMyW0NIMl1bQ0BASF0oQyg9TylbT0hdKVtOSF1DKD1PKVtDSDJdW0NIMl1DKFtPSF0pKFtPSF0pW0NASF0oW0NIMl1jM1tjSF1bY0hdW2NIXVtjSF1bY0hdMylbTkhdQyg9TyljNFtjSF1bY0hdW2NIXVtjSF1bY0hdNA==

> <s_i_glide_gridfile>
glide-grid_P12821_MT_V380T

> <s_lp_Force_Field>
S-OPLS

> <s_lp_Variant>
KAW-1

> <s_m_Source_File>
glide-dock_SP_P12821_MT_V380T_pv.maegz

> <s_m_Source_Path>
D:\project\glide-dock_SP_P12821_MT_V380T

> <s_m_entry_id>
1173

> <s_m_entry_name>
Structure999

> <s_m_job_name>
glide-dock_SP_P12821_MT_V380T

> <s_m_source_file>
ligprep_KAW.maegz

> <s_m_subgroup_title>
glide-dock_SP_P12821_MT_V380T_pv

> <s_m_subgroupid>
glide-dock_SP_P12821_MT_V380T_pv

> <s_pdb_PDB_TITLE>
WT_3BKL_complex

> <s_pdb_PDB_format_version>
3.0

$$$$
