Bace_CAT-17f
                    3D
 Schrodinger Suite 2024-1.
 42 45  0  0  1  0            999 V2000
   22.9084   11.6194   25.0255 C   0  0  0  0  0  0
   22.6730   11.1949   23.6477 N   0  0  0  0  0  0
   22.5558   11.9528   22.5631 C   0  0  0  0  0  0
   22.6022   13.1842   22.5219 O   0  0  0  0  0  0
   22.3642   11.0379   21.3329 C   0  0  2  0  0  0
   23.5289   11.2128   20.3307 C   0  0  0  0  0  0
   23.3008   11.4548   18.9549 C   0  0  0  0  0  0
   24.3790   11.6344   18.0702 C   0  0  0  0  0  0
   25.7012   11.5929   18.5463 C   0  0  0  0  0  0
   25.9670   11.3562   19.9123 C   0  0  0  0  0  0
   27.3450   11.3793   20.4389 C   0  0  0  0  0  0
   28.2705   12.3577   20.0108 C   0  0  0  0  0  0
   29.5337   12.4631   20.4713 N   0  0  0  0  0  0
   29.9331   11.5930   21.4202 C   0  0  0  0  0  0
   29.0997   10.5852   21.9376 C   0  0  0  0  0  0
   29.5830    9.7013   22.9864 C   0  0  0  0  0  0
   29.9706    8.9978   23.8202 N   0  0  0  0  0  0
   27.7933   10.4662   21.4206 C   0  0  0  0  0  0
   24.8711   11.1428   20.7781 C   0  0  0  0  0  0
   20.9718   11.1401   20.6752 C   0  0  0  0  0  0
   19.7278   11.6264   21.3979 C   0  0  0  0  0  0
   20.3317   12.4609   20.2985 C   0  0  0  0  0  0
   22.4420    9.7321   21.9803 N   0  0  0  0  0  0
   22.5872    9.8833   23.2516 C   0  0  0  0  0  0
   22.6526    8.9021   24.2213 N   0  0  0  0  0  0
   23.7900   11.1157   25.4203 H   0  0  0  0  0  0
   23.0766   12.6949   25.0961 H   0  0  0  0  0  0
   22.0621   11.3617   25.6615 H   0  0  0  0  0  0
   22.3022   11.5098   18.5493 H   0  0  0  0  0  0
   24.1914   11.8168   17.0217 H   0  0  0  0  0  0
   26.5112   11.7494   17.8497 H   0  0  0  0  0  0
   27.9869   13.0972   19.2767 H   0  0  0  0  0  0
   30.9448   11.7149   21.7806 H   0  0  0  0  0  0
   27.1307    9.6962   21.7911 H   0  0  0  0  0  0
   25.0682   10.9581   21.8209 H   0  0  0  0  0  0
   20.7917   10.3246   19.9786 H   0  0  0  0  0  0
   18.7927   11.1122   21.1792 H   0  0  0  0  0  0
   19.8109   12.0021   22.4146 H   0  0  0  0  0  0
   20.8416   13.3794   20.5775 H   0  0  0  0  0  0
   19.7979   12.5011   19.3510 H   0  0  0  0  0  0
   22.5931    7.9031   23.9679 H   0  0  0  0  0  0
   22.8809    9.0469   25.1998 H   0  0  0  0  0  0
  1 26  1  0  0  0
  1 27  1  0  0  0
  1 28  1  0  0  0
  1  2  1  0  0  0
  2  3  1  0  0  0
  2 24  1  0  0  0
  3  4  2  0  0  0
  3  5  1  0  0  0
  5 23  1  0  0  0
  5  6  1  0  0  0
  5 20  1  0  0  0
  6 19  1  0  0  0
  6  7  2  0  0  0
  7  8  1  0  0  0
  7 29  1  0  0  0
  8  9  2  0  0  0
  8 30  1  0  0  0
  9 10  1  0  0  0
  9 31  1  0  0  0
 10 11  1  0  0  0
 10 19  2  0  0  0
 11 18  1  0  0  0
 11 12  2  0  0  0
 12 13  1  0  0  0
 12 32  1  0  0  0
 13 14  2  0  0  0
 14 15  1  0  0  0
 14 33  1  0  0  0
 15 16  1  0  0  0
 15 18  2  0  0  0
 16 17  3  0  0  0
 18 34  1  0  0  0
 19 35  1  0  0  0
 20 22  1  0  0  0
 20 21  1  0  0  0
 20 36  1  0  0  0
 21 22  1  0  0  0
 21 37  1  0  0  0
 21 38  1  0  0  0
 22 39  1  0  0  0
 22 40  1  0  0  0
 23 24  2  0  0  0
 24 25  1  0  0  0
 25 41  1  0  0  0
 25 42  1  0  0  0
M  END
> <Tot Q>
0

> <flags>
0

> <Source File Index>
21

> <subgroup collapsed>
0

> <Ionization Penalty>
1.917

> <State Penalty>
0

> <docking score>
-6.19518

> <glide emodel>
-59.6242

> <glide gscore>
-6.19518

> <tautomer probability>
1

> <Source File>
glide-dock_SP_2_pv.maegz

> <Source Path>
C:\Users\yujie\Desktop\FEPs\bace\docking\glide-dock_SP_2

> <entry id>
4402

> <job name>
glide-dock_SP_2

> <subgroup title>
glide-dock_SP_2_pv

> <subgroupid>
glide-dock_SP_2_pv

$$$$
