Bace_CAT-13b
                    3D
 Schrodinger Suite 2020-3.
 42 44  0  0  1  0            999 V2000
   19.4591   12.4591   21.1094 C   0  0  0  0  0  0
   20.7251   12.8766   21.8957 C   0  0  0  0  0  0
   21.9325   11.8661   21.9749 C   0  0  1  0  0  0
   22.9741   11.9560   20.8298 C   0  0  0  0  0  0
   22.5940   12.3823   19.5480 C   0  0  0  0  0  0
   23.5267   12.5022   18.5219 C   0  0  0  0  0  0
   24.8658   12.2098   18.7600 C   0  0  0  0  0  0
   25.2884   11.7767   20.0216 C   0  0  0  0  0  0
   26.7335   11.5398   20.2989 C   0  0  0  0  0  0
   27.7002   12.4681   19.8870 C   0  0  0  0  0  0
   29.0456   12.3005   20.2209 C   0  0  0  0  0  0
   29.4430   11.2030   20.9797 C   0  0  0  0  0  0
   28.5001   10.2571   21.3804 C   0  0  0  0  0  0
   28.9888    8.9160   22.3506 Cl  0  0  0  0  0  0
   27.1600   10.4175   21.0207 C   0  0  0  0  0  0
   24.3266   11.6253   21.0346 C   0  0  0  0  0  0
   22.5327   12.1118   23.2927 N   0  3  0  0  0  0
   22.4625   11.0901   24.1379 C   0  0  0  0  0  0
   22.9921   11.0834   25.3583 N   0  0  0  0  0  0
   21.8486   10.0699   23.5445 N   0  0  0  0  0  0
   21.4327    8.8395   24.2127 C   0  0  0  0  0  0
   21.4447   10.4226   22.1815 C   0  0  0  0  0  0
   20.8236    9.7086   21.3917 O   0  0  0  0  0  0
   18.7649   13.2952   21.0243 H   0  0  0  0  0  0
   19.6763   12.1111   20.1020 H   0  0  0  0  0  0
   18.9200   11.6586   21.6165 H   0  0  0  0  0  0
   20.3686   13.1369   22.8950 H   0  0  0  0  0  0
   21.0876   13.8201   21.4846 H   0  0  0  0  0  0
   21.5757   12.6478   19.3225 H   0  0  0  0  0  0
   23.2134   12.8388   17.5444 H   0  0  0  0  0  0
   25.5773   12.3265   17.9555 H   0  0  0  0  0  0
   27.4075   13.3446   19.3266 H   0  0  0  0  0  0
   29.7756   13.0327   19.9069 H   0  0  0  0  0  0
   30.4804   11.0853   21.2579 H   0  0  0  0  0  0
   26.4376    9.6853   21.3541 H   0  0  0  0  0  0
   24.6535   11.2954   22.0105 H   0  0  0  0  0  0
   23.5284   11.8745   25.6907 H   0  0  0  0  0  0
   22.7297   13.0488   23.6112 H   0  0  0  0  0  0
   21.1469    8.1020   23.4653 H   0  0  0  0  0  0
   22.2752    8.4639   24.7922 H   0  0  0  0  0  0
   20.5911    9.0597   24.8646 H   0  0  0  0  0  0
   22.9395   10.2595   25.9597 H   0  0  0  0  0  0
  1  2  1  0  0  0
  1 24  1  0  0  0
  1 25  1  0  0  0
  1 26  1  0  0  0
  2 27  1  0  0  0
  2 28  1  0  0  0
  2  3  1  0  0  0
  3 17  1  0  0  0
  3 22  1  0  0  0
  3  4  1  0  0  0
  4 16  1  0  0  0
  4  5  2  0  0  0
  5  6  1  0  0  0
  5 29  1  0  0  0
  6  7  2  0  0  0
  6 30  1  0  0  0
  7  8  1  0  0  0
  7 31  1  0  0  0
  8  9  1  0  0  0
  8 16  2  0  0  0
  9 15  1  0  0  0
  9 10  2  0  0  0
 10 11  1  0  0  0
 10 32  1  0  0  0
 11 12  2  0  0  0
 11 33  1  0  0  0
 12 13  1  0  0  0
 12 34  1  0  0  0
 13 14  1  0  0  0
 13 15  2  0  0  0
 15 35  1  0  0  0
 16 36  1  0  0  0
 17 18  2  0  0  0
 17 38  1  0  0  0
 18 20  1  0  0  0
 18 19  1  0  0  0
 19 37  1  0  0  0
 19 42  1  0  0  0
 20 22  1  0  0  0
 20 21  1  0  0  0
 21 39  1  0  0  0
 21 40  1  0  0  0
 21 41  1  0  0  0
 22 23  2  0  0  0
M  CHG  1  17   1
M  END
> <s_m_source_file>
/home/user-home/yujie/0_PBCNetv2/data/FEP/Bace/inp_ligprep.csv

> <i_m_source_file_index>
34

> <i_lp_mmshare_version>
51139

> <i_f3d_flags>
0

> <s_epik_input>
Tz1DMU4oW0NIM10pQyhbTkgyXSk9TltDQEBdMShbQ0gyXVtDSDNdKWMyW2NIXVtjSF1bY0hdYyhbY0hdMiktYzNbY0hdW2NIXVtjSF1jKENsKVtjSF0z

> <s_epik_cmdline>
J2VwaWtfcHl0aG9uJywgJy1waHQnLCAnMi4wJywgJy1waCcsICc3LjQnLCAnLXRuJywgJzgnLCAnLW1hJywgJzIwMCcsICctaW1hZScsICc8aW5maWxlLm1hZT4nLCAnLW9tYWUnLCAnPG91dGZpbGUubWFlPic=

> <r_lp_tautomer_probability>
1

> <r_epik_Ionization_Penalty>
  0.5396

> <r_epik_Ionization_Penalty_Charging>
  0.5396

> <r_epik_Ionization_Penalty_Neutral>
  0.0000

> <r_epik_State_Penalty>
  0.0290

> <r_epik_Charging_Adjusted_Penalty>
0.568585

> <i_epik_Tot_Q>
1

> <i_epik_Tot_abs_Q>
1

> <s_epik_Chemistry_Notes>
This compound has an imine and may undergo hydrolysis.

> <s_lp_Force_Field>
OPLS3e

> <r_lp_Energy>
22.2004

> <b_lp_Chiralities_Consistent>
1

> <s_lp_Variant>
Bace_CAT-13b-1

> <s_i_glide_gridfile>
Bace-001-gridgen

> <i_i_glide_lignum>
44

> <i_i_glide_rotatable_bonds>
3

> <r_i_docking_score>
-5.29305707438849

> <r_i_glide_ligand_efficiency>
-0.23013291627776

> <r_i_glide_ligand_efficiency_sa>
-0.654467400895241

> <r_i_glide_ligand_efficiency_ln>
-1.27990919537516

> <r_i_glide_gscore>
-5.32201567438849

> <r_i_glide_lipo>
-1.99701163454336

> <r_i_glide_hbond>
-0.197498530043594

> <r_i_glide_metal>
-0

> <r_i_glide_rewards>
-1.27644232139788

> <r_i_glide_evdw>
-28.5271739959717

> <r_i_glide_ecoul>
-4.14169597625732

> <r_i_glide_erotb>
0.347514515959489

> <r_i_glide_esite>
-0.15096460812596

> <r_i_glide_emodel>
-49.7951358193918

> <r_i_glide_energy>
-32.668869972229

> <r_i_glide_einternal>
4.17553091049194

> <i_i_glide_confnum>
4

> <i_i_glide_posenum>
93

> <r_i_glide_eff_state_penalty>
0.0289586

$$$$
