Bace_CAT-17a
                    3D
 Schrodinger Suite 2024-1.
 42 45  0  0  1  0            999 V2000
   22.8983   11.6327   25.0072 C   0  0  0  0  0  0
   22.6496   11.1902   23.6378 N   0  0  0  0  0  0
   22.4432   11.9297   22.5522 C   0  0  0  0  0  0
   22.4043   13.1606   22.4949 O   0  0  0  0  0  0
   22.2456   10.9967   21.3379 C   0  0  2  0  0  0
   23.4126   11.1892   20.3168 C   0  0  0  0  0  0
   23.2389   11.2788   18.9129 C   0  0  0  0  0  0
   24.3306   11.4661   18.0484 C   0  0  0  0  0  0
   25.6317   11.5654   18.5619 C   0  0  0  0  0  0
   25.8597   11.4579   19.9467 C   0  0  0  0  0  0
   27.2246   11.6064   20.4817 C   0  0  0  0  0  0
   27.7919   10.6601   21.3671 C   0  0  0  0  0  0
   29.0995   10.8310   21.8650 C   0  0  0  0  0  0
   29.7598    9.7021   22.9939 Cl  0  0  0  0  0  0
   29.8610   11.9426   21.4609 C   0  0  0  0  0  0
   29.2972   12.9091   20.6126 C   0  0  0  0  0  0
   30.1926   14.3232   20.1998 Cl  0  0  0  0  0  0
   27.9916   12.7354   20.1209 C   0  0  0  0  0  0
   24.7515   11.2510   20.7982 C   0  0  0  0  0  0
   20.7579   11.1209   20.9206 C   0  0  0  0  0  0
   20.2042   11.9906   19.8152 C   0  0  0  0  0  0
   20.1380   10.4773   19.7018 C   0  0  0  0  0  0
   22.3925    9.7036   21.9958 N   0  0  0  0  0  0
   22.5898    9.8714   23.2564 C   0  0  0  0  0  0
   22.7274    8.9021   24.2250 N   0  0  0  0  0  0
   23.0517   12.7109   25.0629 H   0  0  0  0  0  0
   22.0586   11.3735   25.6529 H   0  0  0  0  0  0
   23.7917   11.1488   25.4003 H   0  0  0  0  0  0
   22.2844   11.2108   18.4329 H   0  0  0  0  0  0
   24.1676   11.5404   16.9831 H   0  0  0  0  0  0
   26.4569   11.7222   17.8823 H   0  0  0  0  0  0
   27.2145    9.8003   21.6747 H   0  0  0  0  0  0
   30.8696   12.0770   21.8213 H   0  0  0  0  0  0
   27.5701   13.4847   19.4664 H   0  0  0  0  0  0
   24.9473   11.1629   21.8560 H   0  0  0  0  0  0
   20.1053   11.0674   21.7920 H   0  0  0  0  0  0
   19.2682   12.5044   20.0202 H   0  0  0  0  0  0
   20.8977   12.5594   19.2043 H   0  0  0  0  0  0
   20.7938    9.9336   19.0303 H   0  0  0  0  0  0
   19.1649   10.0112   19.8415 H   0  0  0  0  0  0
   22.6740    7.8999   23.9775 H   0  0  0  0  0  0
   22.9855    9.0510   25.1935 H   0  0  0  0  0  0
  1 26  1  0  0  0
  1 27  1  0  0  0
  1 28  1  0  0  0
  1  2  1  0  0  0
  2  3  1  0  0  0
  2 24  1  0  0  0
  3  4  2  0  0  0
  3  5  1  0  0  0
  5 23  1  0  0  0
  5  6  1  0  0  0
  5 20  1  0  0  0
  6 19  1  0  0  0
  6  7  2  0  0  0
  7  8  1  0  0  0
  7 29  1  0  0  0
  8  9  2  0  0  0
  8 30  1  0  0  0
  9 10  1  0  0  0
  9 31  1  0  0  0
 10 11  1  0  0  0
 10 19  2  0  0  0
 11 18  1  0  0  0
 11 12  2  0  0  0
 12 13  1  0  0  0
 12 32  1  0  0  0
 13 14  1  0  0  0
 13 15  2  0  0  0
 15 16  1  0  0  0
 15 33  1  0  0  0
 16 17  1  0  0  0
 16 18  2  0  0  0
 18 34  1  0  0  0
 19 35  1  0  0  0
 20 22  1  0  0  0
 20 21  1  0  0  0
 20 36  1  0  0  0
 21 22  1  0  0  0
 21 37  1  0  0  0
 21 38  1  0  0  0
 22 39  1  0  0  0
 22 40  1  0  0  0
 23 24  2  0  0  0
 24 25  1  0  0  0
 25 41  1  0  0  0
 25 42  1  0  0  0
M  END
> <Tot Q>
0

> <flags>
0

> <Source File Index>
17

> <subgroup collapsed>
0

> <Ionization Penalty>
1.917

> <State Penalty>
0

> <docking score>
-5.92573

> <glide emodel>
-59.4751

> <glide gscore>
-5.92573

> <tautomer probability>
1

> <Source File>
glide-dock_SP_2_pv.maegz

> <Source Path>
C:\Users\yujie\Desktop\FEPs\bace\docking\glide-dock_SP_2

> <entry id>
4424

> <job name>
glide-dock_SP_2

> <subgroup title>
glide-dock_SP_2_pv

> <subgroupid>
glide-dock_SP_2_pv

$$$$
