Bace_CAT-17h
                    3D
 Schrodinger Suite 2024-1.
 41 44  0  0  1  0            999 V2000
   22.8880   11.6123   25.0508 C   0  0  0  0  0  0
   22.6414   11.2029   23.6725 N   0  0  0  0  0  0
   22.4933   11.9720   22.5990 C   0  0  0  0  0  0
   22.5038   13.2045   22.5699 O   0  0  0  0  0  0
   22.3118   11.0671   21.3581 C   0  0  2  0  0  0
   23.4717   11.2696   20.3537 C   0  0  0  0  0  0
   23.2301   11.4721   18.9735 C   0  0  0  0  0  0
   24.2960   11.6700   18.0776 C   0  0  0  0  0  0
   25.6210   11.6855   18.5477 C   0  0  0  0  0  0
   25.9020   11.4850   19.9162 C   0  0  0  0  0  0
   27.2891   11.5513   20.4193 C   0  0  0  0  0  0
   28.1709   12.5638   19.9802 C   0  0  0  0  0  0
   29.4421   12.7037   20.4096 N   0  0  0  0  0  0
   29.8974   11.8266   21.3253 C   0  0  0  0  0  0
   29.1148   10.7781   21.8394 C   0  0  0  0  0  0
   29.7643    9.7023   23.0203 Cl  0  0  0  0  0  0
   27.7926   10.6369   21.3721 C   0  0  0  0  0  0
   24.8197   11.2575   20.7964 C   0  0  0  0  0  0
   20.9175   11.1539   20.7067 C   0  0  0  0  0  0
   19.6696   11.6231   21.4342 C   0  0  0  0  0  0
   20.2568   12.4660   20.3325 C   0  0  0  0  0  0
   22.4129    9.7563   21.9930 N   0  0  0  0  0  0
   22.5718    9.8937   23.2638 C   0  0  0  0  0  0
   22.6599    8.9023   24.2206 N   0  0  0  0  0  0
   23.0257   12.6910   25.1342 H   0  0  0  0  0  0
   22.0575   11.3224   25.6956 H   0  0  0  0  0  0
   23.7921   11.1318   25.4205 H   0  0  0  0  0  0
   22.2289   11.4828   18.5711 H   0  0  0  0  0  0
   24.0984   11.8217   17.0258 H   0  0  0  0  0  0
   26.4211   11.8544   17.8416 H   0  0  0  0  0  0
   27.8446   13.2968   19.2581 H   0  0  0  0  0  0
   30.9165   11.9632   21.6575 H   0  0  0  0  0  0
   27.1718    9.8379   21.7491 H   0  0  0  0  0  0
   25.0312   11.0981   21.8415 H   0  0  0  0  0  0
   20.7438   10.3366   20.0078 H   0  0  0  0  0  0
   18.7441   11.0952   21.2213 H   0  0  0  0  0  0
   19.7546   12.0034   22.4498 H   0  0  0  0  0  0
   20.7559   13.3902   20.6126 H   0  0  0  0  0  0
   19.7221   12.5023   19.3869 H   0  0  0  0  0  0
   22.5951    7.9040   23.9587 H   0  0  0  0  0  0
   22.9133    9.0327   25.1940 H   0  0  0  0  0  0
  1 25  1  0  0  0
  1 26  1  0  0  0
  1 27  1  0  0  0
  1  2  1  0  0  0
  2  3  1  0  0  0
  2 23  1  0  0  0
  3  4  2  0  0  0
  3  5  1  0  0  0
  5 22  1  0  0  0
  5  6  1  0  0  0
  5 19  1  0  0  0
  6 18  1  0  0  0
  6  7  2  0  0  0
  7  8  1  0  0  0
  7 28  1  0  0  0
  8  9  2  0  0  0
  8 29  1  0  0  0
  9 10  1  0  0  0
  9 30  1  0  0  0
 10 11  1  0  0  0
 10 18  2  0  0  0
 11 17  1  0  0  0
 11 12  2  0  0  0
 12 13  1  0  0  0
 12 31  1  0  0  0
 13 14  2  0  0  0
 14 15  1  0  0  0
 14 32  1  0  0  0
 15 16  1  0  0  0
 15 17  2  0  0  0
 17 33  1  0  0  0
 18 34  1  0  0  0
 19 21  1  0  0  0
 19 20  1  0  0  0
 19 35  1  0  0  0
 20 21  1  0  0  0
 20 36  1  0  0  0
 20 37  1  0  0  0
 21 38  1  0  0  0
 21 39  1  0  0  0
 22 23  2  0  0  0
 23 24  1  0  0  0
 24 40  1  0  0  0
 24 41  1  0  0  0
M  END
> <Tot Q>
0

> <flags>
0

> <Source File Index>
14

> <subgroup collapsed>
0

> <Ionization Penalty>
1.9171

> <State Penalty>
0

> <docking score>
-5.88931

> <glide emodel>
-56.5504

> <glide gscore>
-5.88931

> <tautomer probability>
1

> <Source File>
glide-dock_SP_2_pv.maegz

> <Source Path>
C:\Users\yujie\Desktop\FEPs\bace\docking\glide-dock_SP_2

> <entry id>
4428

> <job name>
glide-dock_SP_2

> <subgroup title>
glide-dock_SP_2_pv

> <subgroupid>
glide-dock_SP_2_pv

$$$$
