lig7
                    3D
 Schrodinger Suite 2020-3.
 45 47  0  0  1  0            999 V2000
   13.9804   17.4112    9.1340 C   0  0  0  0  0  0
   14.3094   17.3157   10.5628 N   0  0  1  0  0  0
   13.1997   16.4444   11.6049 S   0  0  0  0  0  0
   13.8576   16.2748   12.9044 O   0  0  0  0  0  0
   12.7093   15.2794   10.8606 O   0  0  0  0  0  0
   11.7985   17.5282   11.8781 C   0  0  0  0  0  0
   10.7089   17.0448   12.6017 C   0  0  0  0  0  0
    9.6201   17.8731   12.8665 C   0  0  0  0  0  0
    9.6248   19.1957   12.4221 C   0  0  0  0  0  0
   10.7119   19.7013   11.7024 C   0  0  0  0  0  0
   10.6807   21.0594   11.3399 N   0  0  0  0  0  0
   11.4102   21.8274   10.4194 C   0  0  0  0  0  0
   11.1784   23.2047   10.3947 C   0  0  0  0  0  0
   11.9103   23.9699    9.4766 C   0  0  0  0  0  0
   11.8350   25.3660    9.4290 N   0  0  0  0  0  0
   11.0760   26.2552   10.2047 C   0  0  0  0  0  0
   11.7797   27.2272   10.9213 C   0  0  0  0  0  0
   11.1066   28.1431   11.7271 C   0  0  0  0  0  0
    9.7168   28.1066   11.8070 C   0  0  0  0  0  0
    9.0009   27.1597   11.0760 C   0  0  0  0  0  0
    9.6666   26.2301   10.2696 C   0  0  0  0  0  0
    8.8185   25.2615    9.4561 C   0  0  0  0  0  0
   12.8058   23.4044    8.6280 N   0  0  0  0  0  0
   12.9649   22.0623    8.7228 C   0  0  0  0  0  0
   12.3098   21.2430    9.5817 N   0  0  0  0  0  0
   11.7956   18.8549   11.4286 C   0  0  0  0  0  0
   14.5761   18.1972    8.6691 H   0  0  0  0  0  0
   14.2123   16.4668    8.6436 H   0  0  0  0  0  0
   12.9197   17.6269    9.0282 H   0  0  0  0  0  0
   15.3015   17.1702   10.7781 H   0  0  0  0  0  0
   10.7014   16.0268   12.9658 H   0  0  0  0  0  0
    8.7794   17.4855   13.4252 H   0  0  0  0  0  0
    8.7784   19.8284   12.6474 H   0  0  0  0  0  0
    9.9559   21.5877   11.8032 H   0  0  0  0  0  0
   10.4920   23.6640   11.0896 H   0  0  0  0  0  0
   12.5349   25.7947    8.8408 H   0  0  0  0  0  0
   12.8591   27.2649   10.8716 H   0  0  0  0  0  0
   11.6635   28.8798   12.2882 H   0  0  0  0  0  0
    9.1924   28.8180   12.4280 H   0  0  0  0  0  0
    7.9209   27.1564   11.1318 H   0  0  0  0  0  0
    9.3751   24.8222    8.6290 H   0  0  0  0  0  0
    8.4313   24.4663   10.0930 H   0  0  0  0  0  0
    7.9659   25.7889    9.0268 H   0  0  0  0  0  0
   13.6786   21.6071    8.0526 H   0  0  0  0  0  0
   12.6631   19.2354   10.9181 H   0  0  0  0  0  0
  1  2  1  0  0  0
  1 27  1  0  0  0
  1 28  1  0  0  0
  1 29  1  0  0  0
  2  3  1  0  0  0
  2 30  1  0  0  0
  3  4  2  0  0  0
  3  5  2  0  0  0
  3  6  1  0  0  0
  6 26  1  0  0  0
  6  7  2  0  0  0
  7  8  1  0  0  0
  7 31  1  0  0  0
  8  9  2  0  0  0
  8 32  1  0  0  0
  9 10  1  0  0  0
  9 33  1  0  0  0
 10 11  1  0  0  0
 10 26  2  0  0  0
 11 12  1  0  0  0
 11 34  1  0  0  0
 12 25  1  0  0  0
 12 13  2  0  0  0
 13 14  1  0  0  0
 13 35  1  0  0  0
 14 15  1  0  0  0
 14 23  2  0  0  0
 15 16  1  0  0  0
 15 36  1  0  0  0
 16 21  1  0  0  0
 16 17  2  0  0  0
 17 18  1  0  0  0
 17 37  1  0  0  0
 18 19  2  0  0  0
 18 38  1  0  0  0
 19 20  1  0  0  0
 19 39  1  0  0  0
 20 21  2  0  0  0
 20 40  1  0  0  0
 21 22  1  0  0  0
 22 41  1  0  0  0
 22 42  1  0  0  0
 22 43  1  0  0  0
 23 24  1  0  0  0
 24 25  2  0  0  0
 24 44  1  0  0  0
 26 45  1  0  0  0
M  END
> <s_m_source_file>
/home/user-home/yujie/0_PBCNetv2/data/0_0_high_sim/0_noncov/Sries46192/ligprep_input.csv

> <i_m_source_file_index>
8

> <i_lp_mmshare_version>
51139

> <i_f3d_flags>
0

> <s_epik_input>
W0NIM11bTkhdUyg9TykoPU8pYzFbY0hdW2NIXVtjSF1jKFtjSF0xKVtOSF1jMltjSF1jKG5bY0hdbjIpW05IXWMzW2NIXVtjSF1bY0hdW2NIXWMzW0NIM10=

> <s_epik_cmdline>
J2VwaWtfcHl0aG9uJywgJy1waHQnLCAnMi4wJywgJy1waCcsICc3LjQnLCAnLXRuJywgJzgnLCAnLW1hJywgJzIwMCcsICctaW1hZScsICc8aW5maWxlLm1hZT4nLCAnLW9tYWUnLCAnPG91dGZpbGUubWFlPic=

> <r_lp_tautomer_probability>
1

> <r_epik_Ionization_Penalty>
  0.0001

> <r_epik_Ionization_Penalty_Charging>
  0.0000

> <r_epik_Ionization_Penalty_Neutral>
  0.0001

> <r_epik_State_Penalty>
 -0.0000

> <r_epik_Charging_Adjusted_Penalty>
0

> <i_epik_Tot_Q>
0

> <i_epik_Tot_abs_Q>
0

> <s_lp_Force_Field>
OPLS3e

> <r_lp_Energy>
34.6259

> <b_lp_Chiralities_Consistent>
1

> <s_lp_Variant>
lig7-1

> <s_i_glide_gridfile>
Sries38428-001-gridgen

> <i_i_glide_lignum>
10

> <i_i_glide_rotatable_bonds>
6

> <r_i_docking_score>
-4.02694528007877

> <r_i_glide_ligand_efficiency>
-0.15488251077226

> <r_i_glide_ligand_efficiency_sa>
-0.45883882872957

> <r_i_glide_ligand_efficiency_ln>
-0.945714885541295

> <r_i_glide_gscore>
-4.02694528007877

> <r_i_glide_lipo>
-2.3802675648049

> <r_i_glide_hbond>
-0.0746880201972121

> <r_i_glide_metal>
-0

> <r_i_glide_rewards>
0.550644755594427

> <r_i_glide_evdw>
-43.3730583190918

> <r_i_glide_ecoul>
-4.4020848274231

> <r_i_glide_erotb>
0.706331189396969

> <r_i_glide_esite>
0

> <r_i_glide_emodel>
-47.8203040332905

> <r_i_glide_energy>
-47.7751431465149

> <r_i_glide_einternal>
12.1291389465332

> <i_i_glide_confnum>
44

> <i_i_glide_posenum>
245

> <r_i_glide_eff_state_penalty>
-0

$$$$
