lig13
                    3D
 Schrodinger Suite 2024-1.
 45 47  0  0  1  0            999 V2000
   13.6001   28.4264   11.5024 C   0  0  0  0  0  0
   12.1274   28.4585   11.4255 N   0  0  2  0  0  0
   11.3041   28.1493    9.9043 S   0  0  0  0  0  0
   12.2171   28.5061    8.8123 O   0  0  0  0  0  0
    9.9758   28.7610   10.0014 O   0  0  0  0  0  0
   11.0635   26.3764    9.8461 C   0  0  0  0  0  0
    9.8658   25.8142   10.2978 C   0  0  0  0  0  0
    9.6605   24.4388   10.1999 C   0  0  0  0  0  0
   10.6516   23.6220    9.6550 C   0  0  0  0  0  0
   11.8692   24.1703    9.2323 C   0  0  0  0  0  0
   12.8925   23.4010    8.6592 N   0  0  0  0  0  0
   13.3186   22.0820    8.8527 C   0  0  0  0  0  0
   12.7996   21.2131    9.8280 C   0  0  0  0  0  0
   13.3051   19.9058    9.8683 C   0  0  0  0  0  0
   12.7330   18.9939   10.7723 N   0  0  0  0  0  0
   12.9304   17.6249   11.0462 C   0  0  0  0  0  0
   12.1643   17.0630   12.0729 C   0  0  0  0  0  0
   12.3352   15.7307   12.4456 C   0  0  0  0  0  0
   13.2759   14.9405   11.7832 C   0  0  0  0  0  0
   13.5086   13.4954   12.1928 C   0  0  0  0  0  0
   14.0029   15.4756   10.7224 C   0  0  0  0  0  0
   13.8407   16.8084   10.3608 C   0  0  0  0  0  0
   14.2965   19.5083    9.0291 N   0  0  0  0  0  0
   14.7377   20.4219    8.1377 C   0  0  0  0  0  0
   14.3094   21.6986    8.0148 N   0  0  0  0  0  0
   12.0631   25.5509    9.3234 C   0  0  0  0  0  0
   13.9859   27.5240   11.0282 H   0  0  0  0  0  0
   14.0160   29.3093   11.0166 H   0  0  0  0  0  0
   13.9097   28.4424   12.5487 H   0  0  0  0  0  0
   11.6209   29.0094   12.1238 H   0  0  0  0  0  0
    9.0844   26.4409   10.7076 H   0  0  0  0  0  0
    8.7268   24.0081   10.5326 H   0  0  0  0  0  0
   10.4453   22.5684    9.5431 H   0  0  0  0  0  0
   13.4833   23.9089    8.0139 H   0  0  0  0  0  0
   12.0382   21.5233   10.5239 H   0  0  0  0  0  0
   12.0160   19.4101   11.3464 H   0  0  0  0  0  0
   11.4426   17.6621   12.6083 H   0  0  0  0  0  0
   11.7403   15.3222   13.2482 H   0  0  0  0  0  0
   13.5815   12.8576   11.3118 H   0  0  0  0  0  0
   12.7008   13.0971   12.8039 H   0  0  0  0  0  0
   14.4423   13.4025   12.7456 H   0  0  0  0  0  0
   14.7093   14.8627   10.1851 H   0  0  0  0  0  0
   14.4476   17.1716    9.5486 H   0  0  0  0  0  0
   15.5094   20.0936    7.4573 H   0  0  0  0  0  0
   12.9893   25.9914    8.9756 H   0  0  0  0  0  0
  1  2  1  0  0  0
  1 27  1  0  0  0
  1 28  1  0  0  0
  1 29  1  0  0  0
  2  3  1  0  0  0
  2 30  1  0  0  0
  3  4  2  0  0  0
  3  5  2  0  0  0
  3  6  1  0  0  0
  6 26  1  0  0  0
  6  7  2  0  0  0
  7  8  1  0  0  0
  7 31  1  0  0  0
  8  9  2  0  0  0
  8 32  1  0  0  0
  9 10  1  0  0  0
  9 33  1  0  0  0
 10 11  1  0  0  0
 10 26  2  0  0  0
 11 12  1  0  0  0
 11 34  1  0  0  0
 12 25  1  0  0  0
 12 13  2  0  0  0
 13 14  1  0  0  0
 13 35  1  0  0  0
 14 15  1  0  0  0
 14 23  2  0  0  0
 15 16  1  0  0  0
 15 36  1  0  0  0
 16 22  1  0  0  0
 16 17  2  0  0  0
 17 18  1  0  0  0
 17 37  1  0  0  0
 18 19  2  0  0  0
 18 38  1  0  0  0
 19 20  1  0  0  0
 19 21  1  0  0  0
 20 39  1  0  0  0
 20 40  1  0  0  0
 20 41  1  0  0  0
 21 22  2  0  0  0
 21 42  1  0  0  0
 22 43  1  0  0  0
 23 24  1  0  0  0
 24 25  2  0  0  0
 24 44  1  0  0  0
 26 45  1  0  0  0
M  END
> <Tot Q>
0

> <Source File Index>
42

> <i_f3d_flags>
0

> <subgroup collapsed>
0

> <Ionization Penalty>
0.0001

> <State Penalty>
0

> <docking score>
-8.52005

> <glide emodel>
-75.3218

> <glide gscore>
-8.52005

> <tautomer probability>
1

> <Source File>
Sries46192_dock_SP_confgen_100_lib.maegz

> <Source Path>
C:\Users\yujie\Desktop\two_s\data

> <entry id>
53

> <subgroup title>
a

> <subgroupid>
Sries46192_dock_SP_confgen_100_lib

$$$$
