lig_cdk8_23
                    3D
 Schrodinger Suite 2024-1.
 49 53  0  0  1  0            999 V2000
   -5.9891   12.1053  -11.8697 C   0  0  0  0  0  0
   -6.3233   11.4855  -10.6519 C   0  0  0  0  0  0
   -7.5753   10.6238  -13.0112 C   0  0  0  0  0  0
   -6.6534   11.6947  -13.0473 C   0  0  0  0  0  0
   -7.7913    9.9461  -11.7967 C   0  0  0  0  0  0
   -7.2022   10.3870  -10.5835 C   0  0  0  0  0  0
   -7.7054    9.5220   -9.5572 C   0  0  0  0  0  0
   -8.4429    8.5725  -10.0789 N   0  0  0  0  0  0
   -8.5100    8.8266  -11.4121 N   0  0  0  0  0  0
   -7.5064    9.6156   -8.0722 C   0  0  0  0  0  0
   -4.9023   13.0980  -11.8538 C   0  0  0  0  0  0
   -6.2323   10.3347   -7.6679 C   0  0  0  0  0  0
   -6.3204   11.6153   -7.0975 C   0  0  0  0  0  0
   -5.1592   12.3479   -6.8002 C   0  0  0  0  0  0
   -3.8803   11.8115   -7.0643 C   0  0  0  0  0  0
   -3.7950   10.5109   -7.6075 C   0  0  0  0  0  0
   -4.9606    9.7772   -7.9150 C   0  0  0  0  0  0
   -2.6776   12.6181   -6.7990 C   0  0  0  0  0  0
   -2.5978   13.9800   -6.8184 C   0  0  0  0  0  0
   -1.2926   14.2979   -6.5140 N   0  0  0  0  0  0
   -0.5387   13.1989   -6.3000 N   0  0  0  0  0  0
   -1.3548   12.1708   -6.5085 C   0  0  0  0  0  0
   -0.6829   15.6046   -6.4164 C   0  0  0  0  0  0
   -5.1040   14.2544  -12.5307 N   0  0  0  0  0  0
   -4.1150   15.1743  -12.4499 C   0  0  0  0  0  0
   -2.9250   14.9854  -11.7315 C   0  0  0  0  0  0
   -2.7098   13.7774  -11.0712 C   0  0  0  0  0  0
   -3.7292   12.8225  -11.1167 C   0  0  0  0  0  0
   -1.5206   13.5453  -10.3882 N   0  0  0  0  0  0
   -5.8243   11.8254   -9.7581 H   0  0  0  0  0  0
   -8.0792   10.3141  -13.9114 H   0  0  0  0  0  0
   -6.4119   12.1799  -13.9816 H   0  0  0  0  0  0
   -9.0450    8.2068  -12.0168 H   0  0  0  0  0  0
   -7.5245    8.6335   -7.6200 H   0  0  0  0  0  0
   -8.3598   10.1340   -7.6354 H   0  0  0  0  0  0
   -7.2879   12.0552   -6.9376 H   0  0  0  0  0  0
   -5.2550   13.3399   -6.3823 H   0  0  0  0  0  0
   -2.8222   10.0788   -7.8072 H   0  0  0  0  0  0
   -4.8672    8.7977   -8.3627 H   0  0  0  0  0  0
   -3.3432   14.7311   -7.0290 H   0  0  0  0  0  0
   -0.9690   11.1647   -6.4207 H   0  0  0  0  0  0
   -0.3983   15.9444   -7.4123 H   0  0  0  0  0  0
    0.2086   15.5571   -5.7896 H   0  0  0  0  0  0
   -1.3864   16.3100   -5.9742 H   0  0  0  0  0  0
   -4.2718   16.0886  -13.0009 H   0  0  0  0  0  0
   -2.1611   15.7486  -11.7420 H   0  0  0  0  0  0
   -3.6066   11.8818  -10.6008 H   0  0  0  0  0  0
   -1.3057   12.5981  -10.0967 H   0  0  0  0  0  0
   -0.7008   13.9737  -10.8052 H   0  0  0  0  0  0
  1  2  2  0  0  0
  1  4  1  0  0  0
  1 11  1  0  0  0
  2  6  1  0  0  0
  2 30  1  0  0  0
  3  4  2  0  0  0
  3  5  1  0  0  0
  3 31  1  0  0  0
  4 32  1  0  0  0
  5  6  2  0  0  0
  5  9  1  0  0  0
  6  7  1  0  0  0
  7  8  2  0  0  0
  7 10  1  0  0  0
  8  9  1  0  0  0
  9 33  1  0  0  0
 10 12  1  0  0  0
 10 34  1  0  0  0
 10 35  1  0  0  0
 11 24  2  0  0  0
 11 28  1  0  0  0
 12 13  2  0  0  0
 12 17  1  0  0  0
 13 14  1  0  0  0
 13 36  1  0  0  0
 14 15  2  0  0  0
 14 37  1  0  0  0
 15 16  1  0  0  0
 15 18  1  0  0  0
 16 17  2  0  0  0
 16 38  1  0  0  0
 17 39  1  0  0  0
 18 19  2  0  0  0
 18 22  1  0  0  0
 19 20  1  0  0  0
 19 40  1  0  0  0
 20 21  1  0  0  0
 20 23  1  0  0  0
 21 22  2  0  0  0
 22 41  1  0  0  0
 23 42  1  0  0  0
 23 43  1  0  0  0
 23 44  1  0  0  0
 24 25  1  0  0  0
 25 26  2  0  0  0
 25 45  1  0  0  0
 26 27  1  0  0  0
 26 46  1  0  0  0
 27 28  2  0  0  0
 27 29  1  0  0  0
 28 47  1  0  0  0
 29 48  1  0  0  0
 29 49  1  0  0  0
M  END
> <Source File Index>
1

> <Name>
23

> <IC50[uM]>
0.27

> <Source File>
lig_cdk8_23.sdf

> <Source Path>
C:\Users\yujie\Desktop\FEPs

> <entry id>
11365

$$$$
