lig_cdk8_15
                    3D
 Schrodinger Suite 2024-1.
 43 45  0  0  1  0            999 V2000
   -3.9915   15.5151  -12.6697 C   0  0  0  0  0  0
   -4.5936   14.3073  -12.1257 N   0  0  0  0  0  0
   -5.5243   13.5696  -12.7546 C   0  0  0  0  0  0
   -5.8876   13.8057  -13.9108 O   0  0  0  0  0  0
   -6.1329   12.4313  -11.9570 C   0  0  0  0  0  0
   -6.8768   11.4436  -12.6209 C   0  0  0  0  0  0
   -7.5083   10.3951  -11.9486 C   0  0  0  0  0  0
   -7.3846   10.3743  -10.5578 C   0  0  0  0  0  0
   -7.8882    9.5304   -9.5945 N   0  0  0  0  0  0
   -7.5329    9.9052   -8.3524 N   0  0  0  0  0  0
   -6.8017   10.9888   -8.4599 C   0  0  0  0  0  0
   -6.3135   11.7269   -7.2119 C   0  0  0  0  0  0
   -4.8025   11.7833   -6.9784 C   0  0  0  0  0  0
   -3.9085   11.1123   -7.8175 C   0  0  0  0  0  0
   -2.5416   11.1653   -7.5793 C   0  0  0  0  0  0
   -2.0371   11.8718   -6.4761 C   0  0  0  0  0  0
   -0.6969   11.9427   -6.1524 O   0  0  0  0  0  0
    0.2394   11.4361   -7.0782 C   0  0  0  0  0  0
   -2.9154   12.5404   -5.6204 C   0  0  0  0  0  0
   -2.3190   13.1738   -4.5436 O   0  0  0  0  0  0
   -3.0886   13.9286   -3.6304 C   0  0  0  0  0  0
   -4.2978   12.5067   -5.8855 C   0  0  0  0  0  0
   -6.6443   11.3424   -9.8446 C   0  0  0  0  0  0
   -6.0021   12.3668  -10.5562 C   0  0  0  0  0  0
   -8.5009    8.7457   -9.7385 H   0  0  0  0  0  0
   -3.0033   15.6772  -12.2395 H   0  0  0  0  0  0
   -4.6219   16.3642  -12.4233 H   0  0  0  0  0  0
   -3.8893   15.4806  -13.7529 H   0  0  0  0  0  0
   -4.2556   14.0020  -11.2261 H   0  0  0  0  0  0
   -6.9829   11.4875  -13.6971 H   0  0  0  0  0  0
   -8.0796    9.6508  -12.4838 H   0  0  0  0  0  0
   -6.6821   12.7527   -7.2245 H   0  0  0  0  0  0
   -6.7460   11.2829   -6.3136 H   0  0  0  0  0  0
   -4.2549   10.5328   -8.6597 H   0  0  0  0  0  0
   -1.8880   10.6270   -8.2494 H   0  0  0  0  0  0
    1.2485   11.6002   -6.7030 H   0  0  0  0  0  0
    0.1212   10.3641   -7.2348 H   0  0  0  0  0  0
    0.1117   11.9657   -8.0239 H   0  0  0  0  0  0
   -2.4467   14.2644   -2.8166 H   0  0  0  0  0  0
   -3.4894   14.8175   -4.1146 H   0  0  0  0  0  0
   -3.8880   13.3324   -3.1898 H   0  0  0  0  0  0
   -4.9883   13.0219   -5.2334 H   0  0  0  0  0  0
   -5.4556   13.1172  -10.0043 H   0  0  0  0  0  0
  1  2  1  0  0  0
  1 26  1  0  0  0
  1 27  1  0  0  0
  1 28  1  0  0  0
  2  3  1  0  0  0
  2 29  1  0  0  0
  3  4  2  0  0  0
  3  5  1  0  0  0
  5 24  1  0  0  0
  5  6  2  0  0  0
  6  7  1  0  0  0
  6 30  1  0  0  0
  7  8  2  0  0  0
  7 31  1  0  0  0
  8 23  1  0  0  0
  8  9  1  0  0  0
  9 25  1  0  0  0
  9 10  1  0  0  0
 10 11  2  0  0  0
 11 12  1  0  0  0
 11 23  1  0  0  0
 12 13  1  0  0  0
 12 32  1  0  0  0
 12 33  1  0  0  0
 13 22  1  0  0  0
 13 14  2  0  0  0
 14 15  1  0  0  0
 14 34  1  0  0  0
 15 16  2  0  0  0
 15 35  1  0  0  0
 16 17  1  0  0  0
 16 19  1  0  0  0
 17 18  1  0  0  0
 18 36  1  0  0  0
 18 37  1  0  0  0
 18 38  1  0  0  0
 19 20  1  0  0  0
 19 22  2  0  0  0
 20 21  1  0  0  0
 21 39  1  0  0  0
 21 40  1  0  0  0
 21 41  1  0  0  0
 22 42  1  0  0  0
 23 24  2  0  0  0
 24 43  1  0  0  0
M  END
> <Tot Q>
0

> <Source File Index>
1213

> <i_f3d_flags>
0

> <subgroup collapsed>
0

> <Ionization Penalty>
0

> <State Penalty>
0.009

> <docking score>
-6.07796

> <glide emodel>
-55.3719

> <glide gscore>
-6.087

> <tautomer probability>
0.980392

> <Source File>
cdk8cdk8_dock_SP_confgen_100_lib.maegz

> <Source Path>
C:\Users\yujie\Desktop\FEPs\cdk8

> <entry id>
6649

> <subgroup title>
cdk8cdk8_dock_SP_confgen_100_lib

> <subgroupid>
cdk8cdk8_dock_SP_confgen_100_lib

$$$$
