lig_cdk8_38
                    3D
 Schrodinger Suite 2020-3.
 52 56  0  0  1  0            999 V2000
    0.3179   15.0893   -6.3227 C   0  0  0  0  0  0
   -0.4818   13.8894   -6.4868 N   0  0  0  0  0  0
   -1.8277   13.8042   -6.7188 C   0  0  0  0  0  0
   -2.1229   12.4520   -6.8116 C   0  0  0  0  0  0
   -3.4448   11.8184   -7.0727 C   0  0  0  0  0  0
   -3.5006   10.5399   -7.6306 C   0  0  0  0  0  0
   -4.7270    9.9620   -7.9461 C   0  0  0  0  0  0
   -5.9149   10.6380   -7.6576 C   0  0  0  0  0  0
   -7.2596    9.9982   -7.9921 C   0  0  0  0  0  0
   -7.4938    9.8024   -9.4816 C   0  0  0  0  0  0
   -8.1714    8.7646   -9.9084 N   0  0  0  0  0  0
   -8.2924    8.8715  -11.2438 N   0  0  0  0  0  0
   -7.6855   10.0134  -11.7242 C   0  0  0  0  0  0
   -7.5812   10.5606  -13.0070 C   0  0  0  0  0  0
   -6.8205   11.7254  -13.1419 C   0  0  0  0  0  0
   -6.1913   12.3377  -12.0499 C   0  0  0  0  0  0
   -5.3449   13.5778  -12.2585 C   0  0  0  0  0  0
   -5.7605   14.4701  -13.0023 O   0  0  0  0  0  0
   -4.1562   13.6664  -11.6013 N   0  0  0  0  0  0
   -3.4408   12.5257  -10.9992 C   0  0  0  0  0  0
   -1.9840   12.9961  -10.9808 C   0  0  0  0  0  0
   -2.0944   14.4968  -10.8056 C   0  0  0  0  0  0
   -2.2910   14.7645   -9.5115 F   0  0  0  0  0  0
   -0.9928   15.1289  -11.2105 F   0  0  0  0  0  0
   -3.3323   14.8890  -11.6158 C   0  0  0  0  0  0
   -6.3811   11.8146  -10.7608 C   0  0  0  0  0  0
   -7.1153   10.6325  -10.5894 C   0  0  0  0  0  0
   -5.8646   11.9028   -7.0632 C   0  0  0  0  0  0
   -4.6361   12.4946   -6.7819 C   0  0  0  0  0  0
   -0.8706   11.8366   -6.6230 C   0  0  0  0  0  0
    0.1058   12.6900   -6.4208 N   0  0  0  0  0  0
   -8.8083    8.1712  -11.7645 H   0  0  0  0  0  0
   -0.3061   15.9758   -6.4498 H   0  0  0  0  0  0
    0.7564   15.0990   -5.3237 H   0  0  0  0  0  0
    1.1122   15.1038   -7.0709 H   0  0  0  0  0  0
   -2.4393   14.6920   -6.8138 H   0  0  0  0  0  0
   -2.5916   10.0017   -7.8593 H   0  0  0  0  0  0
   -4.7559    8.9821   -8.4011 H   0  0  0  0  0  0
   -8.0538   10.6220   -7.5808 H   0  0  0  0  0  0
   -7.3260    9.0446   -7.4649 H   0  0  0  0  0  0
   -8.0587   10.1024  -13.8600 H   0  0  0  0  0  0
   -6.7070   12.1486  -14.1320 H   0  0  0  0  0  0
   -3.5194   11.6101  -11.5889 H   0  0  0  0  0  0
   -3.7568   12.3850   -9.9652 H   0  0  0  0  0  0
   -1.4870   12.7699  -11.9275 H   0  0  0  0  0  0
   -1.3942   12.5086  -10.2031 H   0  0  0  0  0  0
   -3.8324   15.7673  -11.2068 H   0  0  0  0  0  0
   -3.0263   15.1134  -12.6385 H   0  0  0  0  0  0
   -5.9544   12.3074   -9.9010 H   0  0  0  0  0  0
   -6.7747   12.4286   -6.8237 H   0  0  0  0  0  0
   -4.6111   13.4768   -6.3325 H   0  0  0  0  0  0
   -0.6780   10.7700   -6.6352 H   0  0  0  0  0  0
  1  2  1  0  0  0
  1 33  1  0  0  0
  1 34  1  0  0  0
  1 35  1  0  0  0
  2 31  1  0  0  0
  2  3  1  0  0  0
  3  4  2  0  0  0
  3 36  1  0  0  0
  4  5  1  0  0  0
  4 30  1  0  0  0
  5 29  1  0  0  0
  5  6  2  0  0  0
  6  7  1  0  0  0
  6 37  1  0  0  0
  7  8  2  0  0  0
  7 38  1  0  0  0
  8  9  1  0  0  0
  8 28  1  0  0  0
  9 10  1  0  0  0
  9 39  1  0  0  0
  9 40  1  0  0  0
 10 27  1  0  0  0
 10 11  2  0  0  0
 11 12  1  0  0  0
 12 32  1  0  0  0
 12 13  1  0  0  0
 13 27  1  0  0  0
 13 14  2  0  0  0
 14 15  1  0  0  0
 14 41  1  0  0  0
 15 16  2  0  0  0
 15 42  1  0  0  0
 16 17  1  0  0  0
 16 26  1  0  0  0
 17 18  2  0  0  0
 17 19  1  0  0  0
 19 25  1  0  0  0
 19 20  1  0  0  0
 20 21  1  0  0  0
 20 43  1  0  0  0
 20 44  1  0  0  0
 21 22  1  0  0  0
 21 45  1  0  0  0
 21 46  1  0  0  0
 22 23  1  0  0  0
 22 24  1  0  0  0
 22 25  1  0  0  0
 25 47  1  0  0  0
 25 48  1  0  0  0
 26 27  2  0  0  0
 26 49  1  0  0  0
 28 29  2  0  0  0
 28 50  1  0  0  0
 29 51  1  0  0  0
 30 31  2  0  0  0
 30 52  1  0  0  0
M  END
> <s_m_source_file>
/home/user-home/yujie/0_PBCNetv2/data/FEP/cdk8/inp_ligprep.csv

> <i_m_source_file_index>
32

> <i_lp_mmshare_version>
51139

> <i_f3d_flags>
0

> <s_epik_input>
W0NIM11uMVtjSF1jKFtjSF1uMSktYzJbY0hdW2NIXWMoW2NIXVtjSF0yKVtDSDJdYyhuW25IXTMpYyhjMzQpW2NIXWMoW2NIXVtjSF00KUMoPU8pTihbQ0gyXTUpW0NIMl1bQ0gyXUM1KEYpRg==

> <s_epik_cmdline>
J2VwaWtfcHl0aG9uJywgJy1waHQnLCAnMi4wJywgJy1waCcsICc3LjQnLCAnLXRuJywgJzgnLCAnLW1hJywgJzIwMCcsICctaW1hZScsICc8aW5maWxlLm1hZT4nLCAnLW9tYWUnLCAnPG91dGZpbGUubWFlPic=

> <r_lp_tautomer_probability>
0.980392

> <r_epik_Ionization_Penalty>
  0.0001

> <r_epik_Ionization_Penalty_Charging>
  0.0000

> <r_epik_Ionization_Penalty_Neutral>
  0.0001

> <r_epik_State_Penalty>
  0.0090

> <r_epik_Charging_Adjusted_Penalty>
0.00904526

> <i_epik_Tot_Q>
0

> <i_epik_Tot_abs_Q>
0

> <s_lp_Force_Field>
OPLS3e

> <r_lp_Energy>
37.7845

> <b_lp_Chiralities_Consistent>
1

> <s_lp_Variant>
lig_cdk8_38-1

> <s_i_glide_gridfile>
cdk8-001-gridgen

> <i_i_glide_lignum>
71

> <i_i_glide_rotatable_bonds>
5

> <r_i_docking_score>
-9.52874182375263

> <r_i_glide_ligand_efficiency>
-0.307378768508149

> <r_i_glide_ligand_efficiency_sa>
-0.965593715242114

> <r_i_glide_ligand_efficiency_ln>
-2.14902330212274

> <r_i_glide_gscore>
-9.53778708375263

> <r_i_glide_lipo>
-3.90114550355709

> <r_i_glide_hbond>
-0.477379182739745

> <r_i_glide_metal>
-0

> <r_i_glide_rewards>
-2.33683866194489

> <r_i_glide_evdw>
-50.2150382995605

> <r_i_glide_ecoul>
-4.0222339630127

> <r_i_glide_erotb>
0.390201817705085

> <r_i_glide_esite>
-0.0985385437860541

> <r_i_glide_emodel>
-81.7250622188339

> <r_i_glide_energy>
-54.2372722625732

> <r_i_glide_einternal>
9.40170669555664

> <i_i_glide_confnum>
39

> <i_i_glide_posenum>
183

> <r_i_glide_eff_state_penalty>
0.00904526

$$$$
