lig_cdk8_26
                    3D
 Schrodinger Suite 2020-3.
 49 53  0  0  1  0            999 V2000
    1.8335   12.2530   -5.1994 C   0  0  0  0  0  0
    0.5403   12.6498   -5.7199 N   0  0  0  0  0  0
   -0.5164   11.8390   -6.0278 C   0  0  0  0  0  0
   -1.5424   12.6752   -6.4434 C   0  0  0  0  0  0
   -2.9395   12.3000   -6.7920 C   0  0  0  0  0  0
   -3.9833   13.1763   -6.4919 C   0  0  0  0  0  0
   -5.3025   12.7896   -6.7024 C   0  0  0  0  0  0
   -5.5863   11.5242   -7.2229 C   0  0  0  0  0  0
   -7.0402   11.0723   -7.3184 C   0  0  0  0  0  0
   -7.3788   10.2560   -8.5510 C   0  0  0  0  0  0
   -7.8874    8.9837   -8.4694 N   0  0  0  0  0  0
   -8.1634    8.3821   -9.6362 N   0  0  0  0  0  0
   -7.8322    9.3319  -10.5517 C   0  0  0  0  0  0
   -7.9653    9.2436  -11.9403 C   0  0  0  0  0  0
   -7.5147   10.3069  -12.7152 C   0  0  0  0  0  0
   -6.9094   11.4399  -12.1558 C   0  0  0  0  0  0
   -6.3898   12.4318  -13.0329 N   0  0  0  0  0  0
   -6.8765   12.6222  -14.4112 C   0  0  0  0  0  0
   -5.8828   13.5517  -15.0631 C   0  0  0  0  0  0
   -5.3104   14.3070  -13.8931 C   0  0  0  0  0  0
   -5.4501   13.3718  -12.7025 C   0  0  0  0  0  0
   -4.8102   13.5082  -11.6608 O   0  0  0  0  0  0
   -6.8387   11.5581  -10.7545 C   0  0  0  0  0  0
   -7.2942   10.5064   -9.9482 C   0  0  0  0  0  0
   -4.5385   10.6667   -7.5773 C   0  0  0  0  0  0
   -3.2183   11.0553   -7.3617 C   0  0  0  0  0  0
   -0.9491   13.9498   -6.4109 C   0  0  0  0  0  0
    0.2948   13.9369   -5.9867 N   0  0  0  0  0  0
   -8.0281    8.4991   -7.5934 H   0  0  0  0  0  0
    1.7102   11.3831   -4.5563 H   0  0  0  0  0  0
    2.2762   13.0624   -4.6188 H   0  0  0  0  0  0
    2.4922   11.9919   -6.0236 H   0  0  0  0  0  0
   -0.4602   10.7670   -5.8889 H   0  0  0  0  0  0
   -3.7775   14.1407   -6.0517 H   0  0  0  0  0  0
   -6.1002   13.4614   -6.4241 H   0  0  0  0  0  0
   -7.2368   10.4831   -6.4244 H   0  0  0  0  0  0
   -7.7063   11.9307   -7.2307 H   0  0  0  0  0  0
   -8.4026    8.3694  -12.4028 H   0  0  0  0  0  0
   -7.6362   10.2164  -13.7786 H   0  0  0  0  0  0
   -6.9183   11.6885  -14.9749 H   0  0  0  0  0  0
   -7.8792   13.0549  -14.3880 H   0  0  0  0  0  0
   -6.3338   14.1543  -15.8469 H   0  0  0  0  0  0
   -5.0943   12.9635  -15.5330 H   0  0  0  0  0  0
   -5.9143   15.1676  -13.6267 H   0  0  0  0  0  0
   -4.2885   14.6553  -14.0462 H   0  0  0  0  0  0
   -6.4307   12.4322  -10.2771 H   0  0  0  0  0  0
   -4.7405    9.6876   -7.9843 H   0  0  0  0  0  0
   -2.4170   10.3695   -7.6035 H   0  0  0  0  0  0
   -1.4348   14.8756   -6.6777 H   0  0  0  0  0  0
  1  2  1  0  0  0
  1 30  1  0  0  0
  1 31  1  0  0  0
  1 32  1  0  0  0
  2 28  1  0  0  0
  2  3  1  0  0  0
  3  4  2  0  0  0
  3 33  1  0  0  0
  4  5  1  0  0  0
  4 27  1  0  0  0
  5 26  1  0  0  0
  5  6  2  0  0  0
  6  7  1  0  0  0
  6 34  1  0  0  0
  7  8  2  0  0  0
  7 35  1  0  0  0
  8  9  1  0  0  0
  8 25  1  0  0  0
  9 36  1  0  0  0
  9 37  1  0  0  0
  9 10  1  0  0  0
 10 24  2  0  0  0
 10 11  1  0  0  0
 11 29  1  0  0  0
 11 12  1  0  0  0
 12 13  2  0  0  0
 13 14  1  0  0  0
 13 24  1  0  0  0
 14 38  1  0  0  0
 14 15  2  0  0  0
 15 39  1  0  0  0
 15 16  1  0  0  0
 16 17  1  0  0  0
 16 23  2  0  0  0
 17 21  1  0  0  0
 17 18  1  0  0  0
 18 19  1  0  0  0
 18 40  1  0  0  0
 18 41  1  0  0  0
 19 20  1  0  0  0
 19 42  1  0  0  0
 19 43  1  0  0  0
 20 21  1  0  0  0
 20 44  1  0  0  0
 20 45  1  0  0  0
 21 22  2  0  0  0
 23 46  1  0  0  0
 23 24  1  0  0  0
 25 26  2  0  0  0
 25 47  1  0  0  0
 26 48  1  0  0  0
 27 28  2  0  0  0
 27 49  1  0  0  0
M  END
> <s_m_source_file>
/home/user-home/yujie/0_PBCNetv2/data/FEP/cdk8/inp_ligprep.csv

> <i_m_source_file_index>
25

> <i_lp_mmshare_version>
51139

> <i_f3d_flags>
0

> <s_epik_input>
W0NIM11uMVtjSF1jKFtjSF1uMSktYzJbY0hdW2NIXWMoW2NIXVtjSF0yKVtDSDJdYyhuW25IXTMpYyhjMzQpW2NIXWMoW2NIXVtjSF00KU41W0NIMl1bQ0gyXVtDSDJdQzU9Tw==

> <s_epik_cmdline>
J2VwaWtfcHl0aG9uJywgJy1waHQnLCAnMi4wJywgJy1waCcsICc3LjQnLCAnLXRuJywgJzgnLCAnLW1hJywgJzIwMCcsICctaW1hZScsICc8aW5maWxlLm1hZT4nLCAnLW9tYWUnLCAnPG91dGZpbGUubWFlPic=

> <r_lp_tautomer_probability>
0.0196078

> <r_epik_Ionization_Penalty>
  0.0001

> <r_epik_Ionization_Penalty_Charging>
  0.0000

> <r_epik_Ionization_Penalty_Neutral>
  0.0001

> <r_epik_State_Penalty>
  2.4823

> <r_epik_Charging_Adjusted_Penalty>
2.48234

> <i_epik_Tot_Q>
0

> <i_epik_Tot_abs_Q>
0

> <s_lp_Force_Field>
OPLS3e

> <r_lp_Energy>
27.8933

> <b_lp_Chiralities_Consistent>
1

> <s_lp_Variant>
lig_cdk8_26-2

> <s_i_glide_gridfile>
cdk8-001-gridgen

> <i_i_glide_lignum>
58

> <i_i_glide_rotatable_bonds>
4

> <r_i_docking_score>
-7.08237432732379

> <r_i_glide_ligand_efficiency>
-0.252941940261564

> <r_i_glide_ligand_efficiency_sa>
-0.768080705469963

> <r_i_glide_ligand_efficiency_ln>
-1.63481994229247

> <r_i_glide_gscore>
-9.56471432732379

> <r_i_glide_lipo>
-4.07372440360867

> <r_i_glide_hbond>
-0.327607070757281

> <r_i_glide_metal>
-0

> <r_i_glide_rewards>
-3.21607358659095

> <r_i_glide_evdw>
-45.9935493469238

> <r_i_glide_ecoul>
-1.38192021846771

> <r_i_glide_erotb>
0.559656233749462

> <r_i_glide_esite>
0

> <r_i_glide_emodel>
-70.3400547158798

> <r_i_glide_energy>
-47.3754695653915

> <r_i_glide_einternal>
8.6345272064209

> <i_i_glide_confnum>
14

> <i_i_glide_posenum>
392

> <r_i_glide_eff_state_penalty>
2.48234

$$$$
