lig_cdk8_37
                    3D
 Schrodinger Suite 2023-4.
 52 56  0  0  1  0            999 V2000
    1.3961   12.7093   -5.6915 C   0  0  0  0  0  0
   -0.0035   12.8480   -6.0309 N   0  0  0  0  0  0
   -0.8897   11.8789   -6.4502 C   0  0  0  0  0  0
   -2.0925   12.5005   -6.6216 C   0  0  0  0  0  0
   -3.3762   11.8884   -7.0137 C   0  0  0  0  0  0
   -4.6019   12.5386   -6.7482 C   0  0  0  0  0  0
   -5.8299   11.9246   -7.0656 C   0  0  0  0  0  0
   -5.8543   10.6506   -7.6684 C   0  0  0  0  0  0
   -7.1809    9.9684   -7.9642 C   0  0  0  0  0  0
   -7.4781    9.7949   -9.4297 C   0  0  0  0  0  0
   -8.1778    8.7649   -9.8476 N   0  0  0  0  0  0
   -8.2906    8.8994  -11.1920 N   0  0  0  0  0  0
   -7.6813   10.0381  -11.6851 C   0  0  0  0  0  0
   -7.5649   10.6086  -12.9619 C   0  0  0  0  0  0
   -6.8118   11.7858  -13.1255 C   0  0  0  0  0  0
   -6.1850   12.3936  -12.0160 C   0  0  0  0  0  0
   -5.3859   13.6550  -12.2049 C   0  0  0  0  0  0
   -5.8893   14.5940  -12.8245 O   0  0  0  0  0  0
   -4.1370   13.7110  -11.6796 N   0  0  0  0  0  0
   -3.3407   14.9383  -11.6670 C   0  0  0  0  0  0
   -1.8937   14.5028  -11.4365 C   0  0  0  0  0  0
   -2.0132   13.1646  -10.7202 C   0  0  0  0  0  0
   -3.3271   12.5717  -11.2335 C   0  0  0  0  0  0
   -6.3818   11.8442  -10.7266 C   0  0  0  0  0  0
   -7.1115   10.6452  -10.5331 C   0  0  0  0  0  0
   -4.6363   10.0082   -7.9710 C   0  0  0  0  0  0
   -3.4131   10.6217   -7.6386 C   0  0  0  0  0  0
   -1.8436   13.8689   -6.3122 C   0  0  0  0  0  0
   -0.5847   14.0673   -5.9541 N   0  0  0  0  0  0
    1.6947   11.6607   -5.7529 H   0  0  0  0  0  0
    1.9951   13.2957   -6.3919 H   0  0  0  0  0  0
    1.5702   13.0702   -4.6771 H   0  0  0  0  0  0
   -0.5958   10.8434   -6.5656 H   0  0  0  0  0  0
   -4.6147   13.5058   -6.2671 H   0  0  0  0  0  0
   -6.7503   12.4318   -6.8293 H   0  0  0  0  0  0
   -7.9876   10.5303   -7.4930 H   0  0  0  0  0  0
   -7.1680    8.9980   -7.4638 H   0  0  0  0  0  0
   -8.8153    8.2187  -11.7286 H   0  0  0  0  0  0
   -8.0460   10.1494  -13.8089 H   0  0  0  0  0  0
   -6.7084   12.2178  -14.1100 H   0  0  0  0  0  0
   -3.6854   15.5642  -10.8404 H   0  0  0  0  0  0
   -3.4327   15.5160  -12.5875 H   0  0  0  0  0  0
   -1.3178   15.2390  -10.8731 H   0  0  0  0  0  0
   -1.3953   14.3622  -12.3947 H   0  0  0  0  0  0
   -1.1551   12.5121  -10.9007 H   0  0  0  0  0  0
   -2.0814   13.3331   -9.6442 H   0  0  0  0  0  0
   -3.1388   11.9122  -12.0841 H   0  0  0  0  0  0
   -3.7957   11.9770  -10.4484 H   0  0  0  0  0  0
   -5.9512   12.3340   -9.8670 H   0  0  0  0  0  0
   -4.6362    9.0278   -8.4281 H   0  0  0  0  0  0
   -2.4933   10.0994   -7.8561 H   0  0  0  0  0  0
   -2.5228   14.7094   -6.3270 H   0  0  0  0  0  0
  1  2  1  0  0  0
  1 30  1  0  0  0
  1 31  1  0  0  0
  1 32  1  0  0  0
  2 29  1  0  0  0
  2  3  1  0  0  0
  3  4  2  0  0  0
  3 33  1  0  0  0
  4  5  1  0  0  0
  4 28  1  0  0  0
  5 27  1  0  0  0
  5  6  2  0  0  0
  6  7  1  0  0  0
  6 34  1  0  0  0
  7  8  2  0  0  0
  7 35  1  0  0  0
  8  9  1  0  0  0
  8 26  1  0  0  0
  9 10  1  0  0  0
  9 36  1  0  0  0
  9 37  1  0  0  0
 10 25  1  0  0  0
 10 11  2  0  0  0
 11 12  1  0  0  0
 12 13  1  0  0  0
 12 38  1  0  0  0
 13 25  1  0  0  0
 13 14  2  0  0  0
 14 15  1  0  0  0
 14 39  1  0  0  0
 15 16  2  0  0  0
 15 40  1  0  0  0
 16 17  1  0  0  0
 16 24  1  0  0  0
 17 18  2  0  0  0
 17 19  1  0  0  0
 19 23  1  0  0  0
 19 20  1  0  0  0
 20 21  1  0  0  0
 20 41  1  0  0  0
 20 42  1  0  0  0
 21 22  1  0  0  0
 21 43  1  0  0  0
 21 44  1  0  0  0
 22 23  1  0  0  0
 22 45  1  0  0  0
 22 46  1  0  0  0
 23 47  1  0  0  0
 23 48  1  0  0  0
 24 25  2  0  0  0
 24 49  1  0  0  0
 26 27  2  0  0  0
 26 50  1  0  0  0
 27 51  1  0  0  0
 28 29  2  0  0  0
 28 52  1  0  0  0
M  END
> <i_epik_Tot_Q>
0

> <i_epik_Tot_abs_Q>
0

> <i_f3d_flags>
0

> <i_i_glide_confnum>
26

> <i_i_glide_lignum>
9

> <i_i_glide_posenum>
21

> <i_i_glide_rotatable_bonds>
5

> <i_lp_mmshare_version>
65135

> <i_m_Source_File_Index>
5

> <i_m_source_file_index>
5

> <b_lp_Chiralities_Consistent>
1

> <r_canvas_pIC50s>
8.4

> <r_epik_Charging_Adjusted_Penalty>
0.0117328

> <r_epik_Ionization_Penalty>
0.0002

> <r_epik_Ionization_Penalty_Charging>
0

> <r_epik_Ionization_Penalty_Neutral>
0.0002

> <r_epik_State_Penalty>
0.0117

> <r_i_docking_score>
-9.92706

> <r_i_glide_ecoul>
-5.02776

> <r_i_glide_eff_state_penalty>
0.0117

> <r_i_glide_einternal>
1.83506

> <r_i_glide_emodel>
-89.8249

> <r_i_glide_energy>
-55.9621

> <r_i_glide_erotb>
0.458245

> <r_i_glide_esite>
0

> <r_i_glide_evdw>
-50.9344

> <r_i_glide_gscore>
-9.93876

> <r_i_glide_hbond>
-0.479934

> <r_i_glide_ligand_efficiency>
-0.342313

> <r_i_glide_ligand_efficiency_ln>
-2.27305

> <r_i_glide_ligand_efficiency_sa>
-1.05169

> <r_i_glide_lipo>
-4.09377

> <r_i_glide_metal>
-0

> <r_i_glide_rewards>
-2.52242

> <r_lp_Energy>
39.279

> <r_lp_tautomer_probability>
0.980392

> <s_canvas_SMILES>
Cn1cc(-c2ccc(Cc3n[nH]c4ccc(C(=O)N5CCCC5)cc34)cc2)cn1

> <s_canvas_chembl\_ids>
CHEMBL5719

> <s_canvas_dirnames>
test_set_fep+

> <s_canvas_pdb\_ids>
5HNB

> <s_canvas_protein\_names>
cdk8

> <s_canvas_uniprot\_ids>
P49336

> <s_epik_cmdline>
J2VwaWtfcHl0aG9uJywgJy1waCcsICc3LjAnLCAnLXRuJywgJzgnLCAnLW1hJywgJzUwMCcsICctaW1hZScsICc8aW5maWxlLm1hZT4nLCAnLW9tYWUnLCAnPG91dGZpbGUubWFlPic=

> <s_epik_input>
W0NIM11uMVtjSF1jKFtjSF1uMSktYzJbY0hdW2NIXWMoW2NIXVtjSF0yKVtDSDJdYyhuW25IXTMpYyhjMzQpW2NIXWMoW2NIXVtjSF00KUMoPU8pTjVbQ0gyXVtDSDJdW0NIMl1bQ0gyXTU=

> <s_i_glide_gridfile>
cdk8-001-gridgen

> <s_lp_Force_Field>
S-OPLS

> <s_lp_Variant>
lig_cdk8_37-1

> <s_m_Source_File>
ligprep_cdk8-out.maegz

> <s_m_Source_Path>
C:\Users\yujie\Desktop\FEP\ligprep_cdk8

> <s_m_entry_id>
13734

> <s_m_entry_name>
label.5

> <s_m_job_name>
ligprep_cdk8

> <s_m_source_file>
ligprep_cdk8.maegz

$$$$
