lig_cdk8_22
                    3D
 Schrodinger Suite 2020-3.
 48 52  0  0  1  0            999 V2000
    2.2252   13.0128   -5.4754 C   0  0  0  0  0  0
    0.8890   13.2930   -5.9657 N   0  0  0  0  0  0
   -0.1527   12.4173   -6.1291 C   0  0  0  0  0  0
   -1.2466   13.1863   -6.5033 C   0  0  0  0  0  0
   -2.6496   12.7495   -6.7378 C   0  0  0  0  0  0
   -3.6910   13.6264   -6.4263 C   0  0  0  0  0  0
   -5.0111   13.2094   -6.5412 C   0  0  0  0  0  0
   -5.3017   11.9158   -6.9777 C   0  0  0  0  0  0
   -6.7477   11.4453   -6.9535 C   0  0  0  0  0  0
   -7.2066   10.5914   -8.1157 C   0  0  0  0  0  0
   -7.8873    9.4204   -7.8992 N   0  0  0  0  0  0
   -8.2881    8.7642   -8.9907 N   0  0  0  0  0  0
   -7.8272    9.5436  -10.0049 C   0  0  0  0  0  0
   -7.9572    9.2975  -11.3729 C   0  0  0  0  0  0
   -7.4326   10.2279  -12.2636 C   0  0  0  0  0  0
   -6.7960   11.4051  -11.8428 C   0  0  0  0  0  0
   -6.2270   12.4227  -12.8143 C   0  0  0  0  0  0
   -5.4042   13.3783  -12.4212 N   0  0  0  0  0  0
   -5.0881   14.0734  -13.4946 C   0  0  0  0  0  0
   -5.6975   13.5633  -14.6220 C   0  0  0  0  0  0
   -6.4571   12.5111  -14.1828 N   0  0  0  0  0  0
   -7.3191   11.7202  -15.0370 C   0  0  0  0  0  0
   -6.6497   11.6358  -10.4623 C   0  0  0  0  0  0
   -7.1571   10.7111   -9.5359 C   0  0  0  0  0  0
   -4.2630   11.0487   -7.3317 C   0  0  0  0  0  0
   -2.9384   11.4664   -7.2097 C   0  0  0  0  0  0
   -0.7229   14.4890   -6.5613 C   0  0  0  0  0  0
    0.5425   14.5585   -6.2197 N   0  0  0  0  0  0
   -8.0883    9.0563   -6.9790 H   0  0  0  0  0  0
    2.4664   11.9643   -5.6393 H   0  0  0  0  0  0
    2.2711   13.2292   -4.4078 H   0  0  0  0  0  0
    2.9518   13.6319   -6.0046 H   0  0  0  0  0  0
   -0.0368   11.3592   -5.9403 H   0  0  0  0  0  0
   -3.4812   14.6178   -6.0530 H   0  0  0  0  0  0
   -5.8028   13.8851   -6.2515 H   0  0  0  0  0  0
   -6.8609   10.8910   -6.0242 H   0  0  0  0  0  0
   -7.4075   12.3017   -6.8513 H   0  0  0  0  0  0
   -8.4501    8.4055  -11.7336 H   0  0  0  0  0  0
   -7.5240    9.9741  -13.3014 H   0  0  0  0  0  0
   -4.4041   14.9103  -13.4443 H   0  0  0  0  0  0
   -5.6694   13.8258  -15.6691 H   0  0  0  0  0  0
   -7.4635   12.2199  -15.9948 H   0  0  0  0  0  0
   -6.8392   10.7643  -15.2242 H   0  0  0  0  0  0
   -8.2880   11.5839  -14.5612 H   0  0  0  0  0  0
   -6.1476   12.5214  -10.1020 H   0  0  0  0  0  0
   -4.4755   10.0410   -7.6595 H   0  0  0  0  0  0
   -2.1395   10.7791   -7.4520 H   0  0  0  0  0  0
   -1.2762   15.3795   -6.8270 H   0  0  0  0  0  0
  1  2  1  0  0  0
  1 30  1  0  0  0
  1 31  1  0  0  0
  1 32  1  0  0  0
  2 28  1  0  0  0
  2  3  1  0  0  0
  3  4  2  0  0  0
  3 33  1  0  0  0
  4  5  1  0  0  0
  4 27  1  0  0  0
  5 26  1  0  0  0
  5  6  2  0  0  0
  6  7  1  0  0  0
  6 34  1  0  0  0
  7  8  2  0  0  0
  7 35  1  0  0  0
  8  9  1  0  0  0
  8 25  1  0  0  0
  9 36  1  0  0  0
  9 37  1  0  0  0
  9 10  1  0  0  0
 10 24  2  0  0  0
 10 11  1  0  0  0
 11 29  1  0  0  0
 11 12  1  0  0  0
 12 13  2  0  0  0
 13 14  1  0  0  0
 13 24  1  0  0  0
 14 38  1  0  0  0
 14 15  2  0  0  0
 15 39  1  0  0  0
 15 16  1  0  0  0
 16 17  1  0  0  0
 16 23  2  0  0  0
 17 21  1  0  0  0
 17 18  2  0  0  0
 18 19  1  0  0  0
 19 20  2  0  0  0
 19 40  1  0  0  0
 20 21  1  0  0  0
 20 41  1  0  0  0
 21 22  1  0  0  0
 22 42  1  0  0  0
 22 43  1  0  0  0
 22 44  1  0  0  0
 23 45  1  0  0  0
 23 24  1  0  0  0
 25 26  2  0  0  0
 25 46  1  0  0  0
 26 47  1  0  0  0
 27 28  2  0  0  0
 27 48  1  0  0  0
M  END
> <s_m_source_file>
/home/user-home/yujie/0_PBCNetv2/data/FEP/cdk8/inp_ligprep.csv

> <i_m_source_file_index>
15

> <i_lp_mmshare_version>
51139

> <i_f3d_flags>
0

> <s_epik_input>
W0NIM11uMVtjSF1jKFtjSF1uMSktYzJbY0hdW2NIXWMoW2NIXVtjSF0yKVtDSDJdYyhuW25IXTMpYyhjMzQpW2NIXWMoW2NIXVtjSF00KS1jNW5bY0hdW2NIXW41W0NIM10=

> <s_epik_cmdline>
J2VwaWtfcHl0aG9uJywgJy1waHQnLCAnMi4wJywgJy1waCcsICc3LjQnLCAnLXRuJywgJzgnLCAnLW1hJywgJzIwMCcsICctaW1hZScsICc8aW5maWxlLm1hZT4nLCAnLW9tYWUnLCAnPG91dGZpbGUubWFlPic=

> <r_lp_tautomer_probability>
0.0196078

> <r_epik_Ionization_Penalty>
  0.1120

> <r_epik_Ionization_Penalty_Charging>
  0.1120

> <r_epik_Ionization_Penalty_Neutral>
  0.0001

> <r_epik_State_Penalty>
  2.5840

> <r_epik_Charging_Adjusted_Penalty>
2.69598

> <i_epik_Tot_Q>
0

> <i_epik_Tot_abs_Q>
0

> <s_lp_Force_Field>
OPLS3e

> <r_lp_Energy>
28.6843

> <b_lp_Chiralities_Consistent>
1

> <s_lp_Variant>
lig_cdk8_22-3

> <s_i_glide_gridfile>
cdk8-001-gridgen

> <i_i_glide_lignum>
32

> <i_i_glide_rotatable_bonds>
4

> <r_i_docking_score>
-6.72052197790227

> <r_i_glide_ligand_efficiency>
-0.240018642067938

> <r_i_glide_ligand_efficiency_sa>
-0.728837960738527

> <r_i_glide_ligand_efficiency_ln>
-1.55129379559934

> <r_i_glide_gscore>
-9.30454197790227

> <r_i_glide_lipo>
-3.9552227504283

> <r_i_glide_hbond>
-0.32

> <r_i_glide_metal>
-0

> <r_i_glide_rewards>
-2.82808443340759

> <r_i_glide_evdw>
-47.7708129882812

> <r_i_glide_ecoul>
-2.53681707382202

> <r_i_glide_erotb>
0.567828416420986

> <r_i_glide_esite>
0

> <r_i_glide_emodel>
-76.1905482616495

> <r_i_glide_energy>
-50.3076300621033

> <r_i_glide_einternal>
3.55819416046143

> <i_i_glide_confnum>
23

> <i_i_glide_posenum>
275

> <r_i_glide_eff_state_penalty>
2.58402

$$$$
