lig_cdk8_41
                    3D
 Schrodinger Suite 2020-3.
 55 59  0  0  1  0            999 V2000
    1.1169   12.0866   -5.7713 C   0  0  0  0  0  0
   -0.3097   12.2942   -5.9317 N   0  0  0  0  0  0
   -1.1889   11.5644   -6.6840 C   0  0  0  0  0  0
   -2.4567   12.0703   -6.4198 C   0  0  0  0  0  0
   -3.7738   11.5657   -6.9148 C   0  0  0  0  0  0
   -3.8296   10.3640   -7.6258 C   0  0  0  0  0  0
   -5.0514    9.8460   -8.0454 C   0  0  0  0  0  0
   -6.2344   10.5327   -7.7700 C   0  0  0  0  0  0
   -7.5731    9.9669   -8.2365 C   0  0  0  0  0  0
   -7.6872    9.8350   -9.7491 C   0  0  0  0  0  0
   -8.2878    8.7999  -10.2866 N   0  0  0  0  0  0
   -8.2940    8.9766  -11.6201 N   0  0  0  0  0  0
   -7.6711   10.1525  -11.9868 C   0  0  0  0  0  0
   -7.4478   10.7639  -13.2244 C   0  0  0  0  0  0
   -6.6513   11.9110  -13.2268 C   0  0  0  0  0  0
   -6.1326   12.4733  -12.0528 C   0  0  0  0  0  0
   -5.2088   13.6779  -12.1453 C   0  0  0  0  0  0
   -5.4873   14.5433  -12.9820 O   0  0  0  0  0  0
   -4.1181   13.7797  -11.3219 N   0  0  0  0  0  0
   -3.3405   15.0472  -11.3110 C   0  0  0  0  0  0
   -1.8326   14.7412  -11.4284 C   0  0  0  0  0  0
   -1.3457   13.7362  -10.3838 C   0  0  0  0  0  0
   -2.1716   12.4596  -10.5117 C   0  0  0  0  0  0
   -3.6855   12.7107  -10.3809 C   0  0  0  0  0  0
   -6.5184   11.9358  -10.8139 C   0  0  0  0  0  0
   -7.2345   10.7313  -10.7738 C   0  0  0  0  0  0
   -6.1825   11.7364   -7.0635 C   0  0  0  0  0  0
   -4.9607   12.2525   -6.6399 C   0  0  0  0  0  0
   -2.1899   13.1325   -5.5356 C   0  0  0  0  0  0
   -0.9165   13.2619   -5.2357 N   0  0  0  0  0  0
   -8.7462    8.2934  -12.2167 H   0  0  0  0  0  0
    1.4478   11.2785   -6.4238 H   0  0  0  0  0  0
    1.6519   13.0029   -6.0249 H   0  0  0  0  0  0
    1.3284   11.8140   -4.7360 H   0  0  0  0  0  0
   -0.8457   10.7377   -7.2886 H   0  0  0  0  0  0
   -2.9266    9.8097   -7.8379 H   0  0  0  0  0  0
   -5.0805    8.9086   -8.5824 H   0  0  0  0  0  0
   -8.3731   10.6130   -7.8710 H   0  0  0  0  0  0
   -7.7223    9.0003   -7.7513 H   0  0  0  0  0  0
   -7.8361   10.3645  -14.1469 H   0  0  0  0  0  0
   -6.4160   12.3614  -14.1817 H   0  0  0  0  0  0
   -3.5330   15.5450  -10.3614 H   0  0  0  0  0  0
   -3.6002   15.7195  -12.1309 H   0  0  0  0  0  0
   -1.2652   15.6688  -11.3419 H   0  0  0  0  0  0
   -1.6071   14.3635  -12.4239 H   0  0  0  0  0  0
   -0.2868   13.5142  -10.5277 H   0  0  0  0  0  0
   -1.4444   14.1536   -9.3806 H   0  0  0  0  0  0
   -1.9600   11.9746  -11.4682 H   0  0  0  0  0  0
   -1.8683   11.7420   -9.7486 H   0  0  0  0  0  0
   -3.9192   13.0230   -9.3611 H   0  0  0  0  0  0
   -4.1231   11.7381  -10.6032 H   0  0  0  0  0  0
   -6.2060   12.3964   -9.8881 H   0  0  0  0  0  0
   -7.0886   12.2765   -6.8390 H   0  0  0  0  0  0
   -4.9432   13.1810   -6.0900 H   0  0  0  0  0  0
   -2.9263   13.7846   -5.0901 H   0  0  0  0  0  0
  1  2  1  0  0  0
  1 32  1  0  0  0
  1 33  1  0  0  0
  1 34  1  0  0  0
  2 30  1  0  0  0
  2  3  1  0  0  0
  3  4  2  0  0  0
  3 35  1  0  0  0
  4  5  1  0  0  0
  4 29  1  0  0  0
  5 28  1  0  0  0
  5  6  2  0  0  0
  6  7  1  0  0  0
  6 36  1  0  0  0
  7  8  2  0  0  0
  7 37  1  0  0  0
  8  9  1  0  0  0
  8 27  1  0  0  0
  9 10  1  0  0  0
  9 38  1  0  0  0
  9 39  1  0  0  0
 10 26  1  0  0  0
 10 11  2  0  0  0
 11 12  1  0  0  0
 12 31  1  0  0  0
 12 13  1  0  0  0
 13 26  1  0  0  0
 13 14  2  0  0  0
 14 15  1  0  0  0
 14 40  1  0  0  0
 15 16  2  0  0  0
 15 41  1  0  0  0
 16 17  1  0  0  0
 16 25  1  0  0  0
 17 18  2  0  0  0
 17 19  1  0  0  0
 19 24  1  0  0  0
 19 20  1  0  0  0
 20 21  1  0  0  0
 20 42  1  0  0  0
 20 43  1  0  0  0
 21 22  1  0  0  0
 21 44  1  0  0  0
 21 45  1  0  0  0
 22 23  1  0  0  0
 22 46  1  0  0  0
 22 47  1  0  0  0
 23 24  1  0  0  0
 23 48  1  0  0  0
 23 49  1  0  0  0
 24 50  1  0  0  0
 24 51  1  0  0  0
 25 26  2  0  0  0
 25 52  1  0  0  0
 27 28  2  0  0  0
 27 53  1  0  0  0
 28 54  1  0  0  0
 29 30  2  0  0  0
 29 55  1  0  0  0
M  END
> <s_m_source_file>
/home/user-home/yujie/0_PBCNetv2/data/FEP/cdk8/inp_ligprep.csv

> <i_m_source_file_index>
2

> <i_lp_mmshare_version>
51139

> <i_f3d_flags>
0

> <s_epik_input>
W0NIM11uMVtjSF1jKFtjSF1uMSktYzJbY0hdW2NIXWMoW2NIXVtjSF0yKVtDSDJdYyhuW25IXTMpYyhjMzQpW2NIXWMoW2NIXVtjSF00KUMoPU8pTjVbQ0gyXVtDSDJdW0NIMl1bQ0gyXVtDSDJdNQ==

> <s_epik_cmdline>
J2VwaWtfcHl0aG9uJywgJy1waHQnLCAnMi4wJywgJy1waCcsICc3LjQnLCAnLXRuJywgJzgnLCAnLW1hJywgJzIwMCcsICctaW1hZScsICc8aW5maWxlLm1hZT4nLCAnLW9tYWUnLCAnPG91dGZpbGUubWFlPic=

> <r_lp_tautomer_probability>
0.980392

> <r_epik_Ionization_Penalty>
  0.0001

> <r_epik_Ionization_Penalty_Charging>
  0.0000

> <r_epik_Ionization_Penalty_Neutral>
  0.0001

> <r_epik_State_Penalty>
  0.0090

> <r_epik_Charging_Adjusted_Penalty>
0.00904526

> <i_epik_Tot_Q>
0

> <i_epik_Tot_abs_Q>
0

> <s_lp_Force_Field>
OPLS3e

> <r_lp_Energy>
36.3832

> <b_lp_Chiralities_Consistent>
1

> <s_lp_Variant>
lig_cdk8_41-1

> <s_i_glide_gridfile>
cdk8-001-gridgen

> <i_i_glide_lignum>
3

> <i_i_glide_rotatable_bonds>
5

> <r_i_docking_score>
-9.55305137063278

> <r_i_glide_ligand_efficiency>
-0.318435045687759

> <r_i_glide_ligand_efficiency_sa>
-0.989451723874134

> <r_i_glide_ligand_efficiency_ln>
-2.17055736023931

> <r_i_glide_gscore>
-9.56209663063278

> <r_i_glide_lipo>
-4.15403848623951

> <r_i_glide_hbond>
-0.248206133572604

> <r_i_glide_metal>
-0

> <r_i_glide_rewards>
-2.42297073502261

> <r_i_glide_evdw>
-53.2257881164551

> <r_i_glide_ecoul>
-3.36887359619141

> <r_i_glide_erotb>
0.42973916945341

> <r_i_glide_esite>
0

> <r_i_glide_emodel>
-84.2637744403414

> <r_i_glide_energy>
-56.5946617126465

> <r_i_glide_einternal>
12.2677812576294

> <i_i_glide_confnum>
155

> <i_i_glide_posenum>
348

> <r_i_glide_eff_state_penalty>
0.00904526

$$$$
