lig_cdk8_25
                    3D
 Schrodinger Suite 2020-3.
 45 48  0  0  1  0            999 V2000
    0.3612   13.9929   -4.5874 C   0  0  0  0  0  0
   -0.4253   13.1294   -5.4482 N   0  0  0  0  0  0
   -1.7870   13.0895   -5.5906 C   0  0  0  0  0  0
   -2.0608   12.0695   -6.4931 C   0  0  0  0  0  0
   -3.3913   11.5777   -6.9643 C   0  0  0  0  0  0
   -3.4869   10.3643   -7.6517 C   0  0  0  0  0  0
   -4.7297    9.8599   -8.0240 C   0  0  0  0  0  0
   -5.8914   10.5641   -7.7068 C   0  0  0  0  0  0
   -7.2546    9.9786   -8.0556 C   0  0  0  0  0  0
   -7.4916    9.7913   -9.5450 C   0  0  0  0  0  0
   -8.1784    8.7643   -9.9794 N   0  0  0  0  0  0
   -8.3124    8.8915  -11.3113 N   0  0  0  0  0  0
   -7.7304   10.0532  -11.7728 C   0  0  0  0  0  0
   -7.6708   10.6465  -13.0336 C   0  0  0  0  0  0
   -6.9191   11.8195  -13.1358 C   0  0  0  0  0  0
   -6.2366   12.3983  -12.0599 C   0  0  0  0  0  0
   -5.4802   13.5107  -12.3288 N   0  5  0  0  0  0
   -4.3283   14.0545  -11.4092 S   0  0  0  0  0  0
   -3.0509   12.6770  -11.4449 C   0  0  0  0  0  0
   -3.6599   15.1991  -12.0262 O   0  0  0  0  0  0
   -4.6883   14.2024   -9.9951 O   0  0  0  0  0  0
   -6.3723   11.8094  -10.7950 C   0  0  0  0  0  0
   -7.1228   10.6379  -10.6395 C   0  0  0  0  0  0
   -5.8000   11.7934   -7.0497 C   0  0  0  0  0  0
   -4.5561   12.2989   -6.6823 C   0  0  0  0  0  0
   -0.7780   11.5942   -6.8248 C   0  0  0  0  0  0
    0.1940   12.2092   -6.1910 N   0  0  0  0  0  0
   -8.8381    8.2035  -11.8384 H   0  0  0  0  0  0
   -0.2848   14.7270   -4.1047 H   0  0  0  0  0  0
    1.1125   14.5134   -5.1824 H   0  0  0  0  0  0
    0.8544   13.3903   -3.8240 H   0  0  0  0  0  0
   -2.4251   13.7631   -5.0385 H   0  0  0  0  0  0
   -2.6018    9.7873   -7.8749 H   0  0  0  0  0  0
   -4.7908    8.9084   -8.5322 H   0  0  0  0  0  0
   -7.3641    9.0293   -7.5276 H   0  0  0  0  0  0
   -8.0282   10.6351   -7.6544 H   0  0  0  0  0  0
   -8.1711   10.2260  -13.8933 H   0  0  0  0  0  0
   -6.8432   12.2857  -14.1076 H   0  0  0  0  0  0
   -2.1826   13.0014  -10.8736 H   0  0  0  0  0  0
   -3.4829   11.7857  -10.9957 H   0  0  0  0  0  0
   -2.7701   12.4871  -12.4790 H   0  0  0  0  0  0
   -5.8997   12.2341   -9.9276 H   0  0  0  0  0  0
   -6.6885   12.3583   -6.8163 H   0  0  0  0  0  0
   -4.5071   13.2443   -6.1633 H   0  0  0  0  0  0
   -0.5632   10.7836   -7.5069 H   0  0  0  0  0  0
  1  2  1  0  0  0
  1 29  1  0  0  0
  1 30  1  0  0  0
  1 31  1  0  0  0
  2 27  1  0  0  0
  2  3  1  0  0  0
  3  4  2  0  0  0
  3 32  1  0  0  0
  4  5  1  0  0  0
  4 26  1  0  0  0
  5 25  1  0  0  0
  5  6  2  0  0  0
  6  7  1  0  0  0
  6 33  1  0  0  0
  7  8  2  0  0  0
  7 34  1  0  0  0
  8  9  1  0  0  0
  8 24  1  0  0  0
  9 10  1  0  0  0
  9 35  1  0  0  0
  9 36  1  0  0  0
 10 23  1  0  0  0
 10 11  2  0  0  0
 11 12  1  0  0  0
 12 28  1  0  0  0
 12 13  1  0  0  0
 13 23  1  0  0  0
 13 14  2  0  0  0
 14 15  1  0  0  0
 14 37  1  0  0  0
 15 16  2  0  0  0
 15 38  1  0  0  0
 16 17  1  0  0  0
 16 22  1  0  0  0
 17 18  1  0  0  0
 18 19  1  0  0  0
 18 20  2  0  0  0
 18 21  2  0  0  0
 19 39  1  0  0  0
 19 40  1  0  0  0
 19 41  1  0  0  0
 22 23  2  0  0  0
 22 42  1  0  0  0
 24 25  2  0  0  0
 24 43  1  0  0  0
 25 44  1  0  0  0
 26 27  2  0  0  0
 26 45  1  0  0  0
M  CHG  1  17  -1
M  END
> <s_m_source_file>
/home/user-home/yujie/0_PBCNetv2/data/FEP/cdk8/inp_ligprep.csv

> <i_m_source_file_index>
6

> <i_lp_mmshare_version>
51139

> <i_f3d_flags>
0

> <s_epik_input>
W0NIM11uMVtjSF1jKFtjSF1uMSktYzJbY0hdW2NIXWMoW2NIXVtjSF0yKVtDSDJdYyhuW25IXTMpYyhjMzQpW2NIXWMoW2NIXVtjSF00KVtOSF1TKD1PKSg9TylbQ0gzXQ==

> <s_epik_cmdline>
J2VwaWtfcHl0aG9uJywgJy1waHQnLCAnMi4wJywgJy1waCcsICc3LjQnLCAnLXRuJywgJzgnLCAnLW1hJywgJzIwMCcsICctaW1hZScsICc8aW5maWxlLm1hZT4nLCAnLW9tYWUnLCAnPG91dGZpbGUubWFlPic=

> <r_lp_tautomer_probability>
1

> <r_epik_Ionization_Penalty>
  1.5673

> <r_epik_Ionization_Penalty_Charging>
  1.5672

> <r_epik_Ionization_Penalty_Neutral>
  0.0001

> <r_epik_State_Penalty>
  1.6627

> <r_epik_Charging_Adjusted_Penalty>
3.2299

> <i_epik_Tot_Q>
-1

> <i_epik_Tot_abs_Q>
1

> <s_lp_Force_Field>
OPLS3e

> <r_lp_Energy>
24.158

> <b_lp_Chiralities_Consistent>
1

> <s_lp_Variant>
lig_cdk8_25-2

> <s_i_glide_gridfile>
cdk8-001-gridgen

> <i_i_glide_lignum>
12

> <i_i_glide_rotatable_bonds>
5

> <r_i_docking_score>
-7.20221468509464

> <r_i_glide_ligand_efficiency>
-0.266748692040542

> <r_i_glide_ligand_efficiency_sa>
-0.800246075242467

> <r_i_glide_ligand_efficiency_ln>
-1.67655684090109

> <r_i_glide_gscore>
-8.86491468509464

> <r_i_glide_lipo>
-3.86254472376587

> <r_i_glide_hbond>
-0.479717257743748

> <r_i_glide_metal>
-0

> <r_i_glide_rewards>
-2.35674086975404

> <r_i_glide_evdw>
-46.4443855285645

> <r_i_glide_ecoul>
-1.2139093875885

> <r_i_glide_erotb>
0.375309483705734

> <r_i_glide_esite>
-0.0369156329702177

> <r_i_glide_emodel>
-73.0781190748454

> <r_i_glide_energy>
-47.658294916153

> <r_i_glide_einternal>
2.66989302635193

> <i_i_glide_confnum>
15

> <i_i_glide_posenum>
301

> <r_i_glide_eff_state_penalty>
1.6627

$$$$
