lig_cdk8_28
                    3D
 Schrodinger Suite 2024-1.
 51 55  0  0  1  0            999 V2000
    2.7356   14.3765   -4.1750 C   0  0  0  0  0  0
    1.6857   13.6019   -4.8092 N   0  0  0  0  0  0
    0.3737   13.9412   -4.9985 C   0  0  0  0  0  0
   -0.2315   12.8441   -5.5993 C   0  0  0  0  0  0
   -1.6466   12.6905   -6.0272 C   0  0  0  0  0  0
   -1.9966   11.7970   -7.0441 C   0  0  0  0  0  0
   -3.3232   11.6943   -7.4568 C   0  0  0  0  0  0
   -4.3056   12.4792   -6.8451 C   0  0  0  0  0  0
   -5.7574   12.4610   -7.3036 C   0  0  0  0  0  0
   -6.2695   11.1855   -7.9460 C   0  0  0  0  0  0
   -6.4086   10.0853   -7.2553 N   0  0  0  0  0  0
   -6.9448    9.1639   -8.0720 N   0  0  0  0  0  0
   -7.1885    9.6613   -9.3351 C   0  0  0  0  0  0
   -7.7517    9.1110  -10.4927 C   0  0  0  0  0  0
   -7.8597    9.9577  -11.6022 C   0  0  0  0  0  0
   -7.4245   11.2901  -11.5813 C   0  0  0  0  0  0
   -7.6372   12.1178  -12.6792 N   0  0  0  0  0  0
   -7.6318   13.5840  -12.5853 C   0  0  0  0  0  0
   -6.2396   14.1855  -12.8778 C   0  0  0  0  0  0
   -5.8540   13.7947  -14.1924 O   0  0  0  0  0  0
   -5.8133   12.3743  -14.3261 C   0  0  0  0  0  0
   -7.1966   11.7567  -14.0341 C   0  0  0  0  0  0
   -6.8130   11.7912  -10.4270 C   0  0  0  0  0  0
   -6.7208   10.9915   -9.2862 C   0  0  0  0  0  0
   -3.9531   13.3582   -5.8209 C   0  0  0  0  0  0
   -2.6313   13.4635   -5.4115 C   0  0  0  0  0  0
    0.8121   11.9128   -5.6924 C   0  0  0  0  0  0
    1.9509   12.3641   -5.2243 N   0  0  0  0  0  0
   -7.0885    8.2176   -7.7314 H   0  0  0  0  0  0
    2.4372   15.4230   -4.1064 H   0  0  0  0  0  0
    3.6539   14.3022   -4.7602 H   0  0  0  0  0  0
    2.9125   13.9845   -3.1738 H   0  0  0  0  0  0
   -0.0018   14.9085   -4.7006 H   0  0  0  0  0  0
   -1.2432   11.1921   -7.5287 H   0  0  0  0  0  0
   -3.5768   11.0159   -8.2577 H   0  0  0  0  0  0
   -6.3724   12.6853   -6.4343 H   0  0  0  0  0  0
   -5.8888   13.3151   -7.9678 H   0  0  0  0  0  0
   -8.1065    8.0920  -10.5376 H   0  0  0  0  0  0
   -8.3296    9.5714  -12.4955 H   0  0  0  0  0  0
   -8.3231   13.9631  -13.3265 H   0  0  0  0  0  0
   -8.0225   13.9079  -11.6245 H   0  0  0  0  0  0
   -5.4919   13.8697  -12.1487 H   0  0  0  0  0  0
   -6.2838   15.2725  -12.8230 H   0  0  0  0  0  0
   -5.0855   11.9642  -13.6249 H   0  0  0  0  0  0
   -5.4943   12.1320  -15.3400 H   0  0  0  0  0  0
   -7.1726   10.6763  -14.1602 H   0  0  0  0  0  0
   -7.9139   12.1240  -14.7665 H   0  0  0  0  0  0
   -6.4565   12.8068  -10.3832 H   0  0  0  0  0  0
   -4.7016   13.9729   -5.3446 H   0  0  0  0  0  0
   -2.3786   14.1536   -4.6206 H   0  0  0  0  0  0
    0.7317   10.9119   -6.0938 H   0  0  0  0  0  0
  1  2  1  0  0  0
  1 30  1  0  0  0
  1 31  1  0  0  0
  1 32  1  0  0  0
  2 28  1  0  0  0
  2  3  1  0  0  0
  3  4  2  0  0  0
  3 33  1  0  0  0
  4  5  1  0  0  0
  4 27  1  0  0  0
  5 26  1  0  0  0
  5  6  2  0  0  0
  6  7  1  0  0  0
  6 34  1  0  0  0
  7  8  2  0  0  0
  7 35  1  0  0  0
  8  9  1  0  0  0
  8 25  1  0  0  0
  9 10  1  0  0  0
  9 36  1  0  0  0
  9 37  1  0  0  0
 10 24  1  0  0  0
 10 11  2  0  0  0
 11 12  1  0  0  0
 12 29  1  0  0  0
 12 13  1  0  0  0
 13 24  1  0  0  0
 13 14  2  0  0  0
 14 15  1  0  0  0
 14 38  1  0  0  0
 15 16  2  0  0  0
 15 39  1  0  0  0
 16 17  1  0  0  0
 16 23  1  0  0  0
 17 22  1  0  0  0
 17 18  1  0  0  0
 18 19  1  0  0  0
 18 40  1  0  0  0
 18 41  1  0  0  0
 19 20  1  0  0  0
 19 42  1  0  0  0
 19 43  1  0  0  0
 20 21  1  0  0  0
 21 22  1  0  0  0
 21 44  1  0  0  0
 21 45  1  0  0  0
 22 46  1  0  0  0
 22 47  1  0  0  0
 23 24  2  0  0  0
 23 48  1  0  0  0
 25 26  2  0  0  0
 25 49  1  0  0  0
 26 50  1  0  0  0
 27 28  2  0  0  0
 27 51  1  0  0  0
M  END
> <Tot Q>
0

> <Source File Index>
100

> <i_f3d_flags>
0

> <subgroup collapsed>
0

> <Ionization Penalty>
0.0001

> <State Penalty>
0.0077

> <docking score>
-8.52689

> <glide emodel>
-66.2838

> <glide gscore>
-8.53456

> <tautomer probability>
0.983171

> <Source File>
cdk8cdk8_dock_SP_confgen_100_lib.maegz

> <Source Path>
C:\Users\yujie\Desktop\FEPs\cdk8

> <entry id>
5536

> <subgroup title>
cdk8cdk8_dock_SP_confgen_100_lib

> <subgroupid>
cdk8cdk8_dock_SP_confgen_100_lib

$$$$
