lig_cdk8_39
                    3D
 Schrodinger Suite 2024-1.
 53 57  0  0  1  0            999 V2000
   -6.1529   12.3743  -12.1755 C   0  0  0  0  0  0
   -6.4622   11.7837  -10.9206 C   0  0  0  0  0  0
   -7.6333   10.7409  -13.2493 C   0  0  0  0  0  0
   -6.7838   11.8597  -13.3309 C   0  0  0  0  0  0
   -7.7943   10.0871  -12.0181 C   0  0  0  0  0  0
   -7.2228   10.5933  -10.8198 C   0  0  0  0  0  0
   -7.6276    9.6753   -9.7847 C   0  0  0  0  0  0
   -8.3401    8.6951  -10.2902 N   0  0  0  0  0  0
   -8.4566    8.9430  -11.6151 N   0  0  0  0  0  0
   -7.3730    9.7087   -8.3024 C   0  0  0  0  0  0
   -4.0915   13.6629  -11.5985 N   0  0  0  0  0  0
   -5.2471   13.5826  -12.3164 C   0  0  0  0  0  0
   -5.5960   14.4531  -13.1312 O   0  0  0  0  0  0
   -6.1143   10.4436   -7.8671 C   0  0  0  0  0  0
   -6.2202   11.6916   -7.2274 C   0  0  0  0  0  0
   -5.0673   12.3944   -6.8336 C   0  0  0  0  0  0
   -3.7799   11.8569   -7.0549 C   0  0  0  0  0  0
   -3.6813   10.5842   -7.6596 C   0  0  0  0  0  0
   -4.8362    9.8855   -8.0714 C   0  0  0  0  0  0
   -2.5796   12.6290   -6.6846 C   0  0  0  0  0  0
   -2.4880   13.9867   -6.5725 C   0  0  0  0  0  0
   -1.1840   14.2625   -6.2231 N   0  0  0  0  0  0
   -0.4435   13.1419   -6.1012 N   0  0  0  0  0  0
   -1.2640   12.1457   -6.4170 C   0  0  0  0  0  0
   -0.5565   15.5453   -5.9992 C   0  0  0  0  0  0
   -3.3412   14.9313  -11.5848 C   0  0  0  0  0  0
   -1.8393   14.7579  -11.3034 C   0  0  0  0  0  0
   -1.6845   13.9848  -10.1318 O   0  0  0  0  0  0
   -2.0858   12.6578  -10.4042 C   0  0  0  0  0  0
   -3.6023   12.6409  -10.6468 C   0  0  0  0  0  0
   -6.0707   12.1997  -10.0079 H   0  0  0  0  0  0
   -8.1401   10.3837  -14.1287 H   0  0  0  0  0  0
   -6.6164   12.3288  -14.2893 H   0  0  0  0  0  0
   -8.9895    8.3024  -12.1959 H   0  0  0  0  0  0
   -8.2350   10.1496   -7.8023 H   0  0  0  0  0  0
   -7.3181    8.6940   -7.9204 H   0  0  0  0  0  0
   -7.1917   12.1194   -7.0519 H   0  0  0  0  0  0
   -5.1756   13.3593   -6.3593 H   0  0  0  0  0  0
   -2.7056   10.1431   -7.8238 H   0  0  0  0  0  0
   -4.7315    8.9184   -8.5424 H   0  0  0  0  0  0
   -3.2218   14.7637   -6.7211 H   0  0  0  0  0  0
   -0.8839   11.1342   -6.4227 H   0  0  0  0  0  0
   -1.3089   16.2951   -5.7568 H   0  0  0  0  0  0
   -0.0203   15.8447   -6.9001 H   0  0  0  0  0  0
    0.1514   15.4721   -5.1729 H   0  0  0  0  0  0
   -3.4433   15.4884  -12.5166 H   0  0  0  0  0  0
   -3.7811   15.5505  -10.8072 H   0  0  0  0  0  0
   -1.3255   14.2886  -12.1423 H   0  0  0  0  0  0
   -1.3579   15.7231  -11.1599 H   0  0  0  0  0  0
   -1.5380   12.2442  -11.2534 H   0  0  0  0  0  0
   -1.8398   12.0331   -9.5458 H   0  0  0  0  0  0
   -3.8697   11.6326  -10.9612 H   0  0  0  0  0  0
   -4.0743   12.8311   -9.6849 H   0  0  0  0  0  0
  1  2  2  0  0  0
  1  4  1  0  0  0
  1 12  1  0  0  0
  2  6  1  0  0  0
  2 31  1  0  0  0
  3  4  2  0  0  0
  3  5  1  0  0  0
  3 32  1  0  0  0
  4 33  1  0  0  0
  5  6  2  0  0  0
  5  9  1  0  0  0
  6  7  1  0  0  0
  7  8  2  0  0  0
  7 10  1  0  0  0
  8  9  1  0  0  0
  9 34  1  0  0  0
 10 14  1  0  0  0
 10 35  1  0  0  0
 10 36  1  0  0  0
 11 12  1  0  0  0
 11 26  1  0  0  0
 11 30  1  0  0  0
 12 13  2  0  0  0
 14 15  2  0  0  0
 14 19  1  0  0  0
 15 16  1  0  0  0
 15 37  1  0  0  0
 16 17  2  0  0  0
 16 38  1  0  0  0
 17 18  1  0  0  0
 17 20  1  0  0  0
 18 19  2  0  0  0
 18 39  1  0  0  0
 19 40  1  0  0  0
 20 21  2  0  0  0
 20 24  1  0  0  0
 21 22  1  0  0  0
 21 41  1  0  0  0
 22 23  1  0  0  0
 22 25  1  0  0  0
 23 24  2  0  0  0
 24 42  1  0  0  0
 25 43  1  0  0  0
 25 44  1  0  0  0
 25 45  1  0  0  0
 26 27  1  0  0  0
 26 46  1  0  0  0
 26 47  1  0  0  0
 27 28  1  0  0  0
 27 48  1  0  0  0
 27 49  1  0  0  0
 28 29  1  0  0  0
 29 30  1  0  0  0
 29 50  1  0  0  0
 29 51  1  0  0  0
 30 52  1  0  0  0
 30 53  1  0  0  0
M  END
> <Source File Index>
1

> <Name>
39

> <IC50[uM]>
0.004

> <Source File>
lig_cdk8_39.sdf

> <Source Path>
C:\Users\yujie\Desktop\FEPs

> <entry id>
11369

$$$$
