lig_cdk8_13
                    3D
 Schrodinger Suite 2024-1.
 47 50  0  0  1  0            999 V2000
   -4.2922   13.9554   -6.6734 C   0  0  0  0  0  0
   -4.4584   12.5190   -7.1195 C   0  0  0  0  0  0
   -3.3273   11.7213   -7.3850 C   0  0  0  0  0  0
   -3.4908   10.3966   -7.8319 C   0  0  0  0  0  0
   -4.7819    9.8703   -8.0241 C   0  0  0  0  0  0
   -5.9188   10.6568   -7.7443 C   0  0  0  0  0  0
   -7.3124   10.0878   -7.9526 C   0  0  0  0  0  0
   -7.6366    9.8396   -9.3994 C   0  0  0  0  0  0
   -8.2880    8.7640   -9.7695 N   0  0  0  0  0  0
   -8.4258    8.8393  -11.1194 N   0  0  0  0  0  0
   -7.8868    9.9906  -11.6612 C   0  0  0  0  0  0
   -7.8116   10.5261  -12.9576 C   0  0  0  0  0  0
   -7.1088   11.7311  -13.1741 C   0  0  0  0  0  0
   -7.0332   12.2180  -14.4500 O   0  0  0  0  0  0
   -6.4959   12.4011  -12.0811 C   0  0  0  0  0  0
   -6.6637   11.8771  -10.7796 C   0  0  0  0  0  0
   -7.3324   10.6586  -10.5394 C   0  0  0  0  0  0
   -5.7351   13.6925  -12.2540 C   0  0  0  0  0  0
   -6.2718   14.6420  -12.8240 O   0  0  0  0  0  0
   -4.4911   13.7833  -11.7279 N   0  0  0  0  0  0
   -3.7098   15.0185  -11.7859 C   0  0  0  0  0  0
   -2.4148   14.7552  -11.0201 C   0  0  0  0  0  0
   -2.2729   13.2364  -10.9866 C   0  0  2  0  0  0
   -1.4883   12.7640  -12.0557 O   0  0  0  0  0  0
   -3.6924   12.6910  -11.1634 C   0  0  0  0  0  0
   -5.7520   11.9791   -7.2802 C   0  0  0  0  0  0
   -4.5717   14.0663   -5.6223 H   0  0  0  0  0  0
   -3.2587   14.2920   -6.7935 H   0  0  0  0  0  0
   -4.9284   14.6062   -7.2774 H   0  0  0  0  0  0
   -2.3309   12.1193   -7.2552 H   0  0  0  0  0  0
   -2.6183    9.7866   -8.0244 H   0  0  0  0  0  0
   -4.9000    8.8564   -8.3773 H   0  0  0  0  0  0
   -8.0505   10.7659   -7.5229 H   0  0  0  0  0  0
   -7.3888    9.1654   -7.3757 H   0  0  0  0  0  0
   -8.9217    8.1132  -11.6247 H   0  0  0  0  0  0
   -8.2858   10.0048  -13.7758 H   0  0  0  0  0  0
   -7.6349   11.7953  -15.0447 H   0  0  0  0  0  0
   -6.2594   12.4136   -9.9351 H   0  0  0  0  0  0
   -4.2562   15.8610  -11.3600 H   0  0  0  0  0  0
   -3.4881   15.2597  -12.8244 H   0  0  0  0  0  0
   -2.5249   15.1260  -10.0001 H   0  0  0  0  0  0
   -1.5542   15.2616  -11.4600 H   0  0  0  0  0  0
   -1.8214   12.8898  -10.0548 H   0  0  0  0  0  0
   -0.6206   13.1594  -12.0234 H   0  0  0  0  0  0
   -3.7225   11.7882  -11.7770 H   0  0  0  0  0  0
   -4.0783   12.4333  -10.1786 H   0  0  0  0  0  0
   -6.6173   12.5909   -7.0720 H   0  0  0  0  0  0
  1  2  1  0  0  0
  1 27  1  0  0  0
  1 28  1  0  0  0
  1 29  1  0  0  0
  2 26  1  0  0  0
  2  3  2  0  0  0
  3  4  1  0  0  0
  3 30  1  0  0  0
  4  5  2  0  0  0
  4 31  1  0  0  0
  5  6  1  0  0  0
  5 32  1  0  0  0
  6  7  1  0  0  0
  6 26  2  0  0  0
  7  8  1  0  0  0
  7 33  1  0  0  0
  7 34  1  0  0  0
  8 17  1  0  0  0
  8  9  2  0  0  0
  9 10  1  0  0  0
 10 11  1  0  0  0
 10 35  1  0  0  0
 11 17  1  0  0  0
 11 12  2  0  0  0
 12 13  1  0  0  0
 12 36  1  0  0  0
 13 14  1  0  0  0
 13 15  2  0  0  0
 14 37  1  0  0  0
 15 16  1  0  0  0
 15 18  1  0  0  0
 16 17  2  0  0  0
 16 38  1  0  0  0
 18 19  2  0  0  0
 18 20  1  0  0  0
 20 25  1  0  0  0
 20 21  1  0  0  0
 21 22  1  0  0  0
 21 39  1  0  0  0
 21 40  1  0  0  0
 22 23  1  0  0  0
 22 41  1  0  0  0
 22 42  1  0  0  0
 23 24  1  0  0  0
 23 25  1  0  0  0
 23 43  1  0  0  0
 24 44  1  0  0  0
 25 45  1  0  0  0
 25 46  1  0  0  0
 26 47  1  0  0  0
M  END
> <Tot Q>
0

> <flags>
0

> <Source File Index>
1

> <subgroup collapsed>
0

> <Ionization Penalty>
0.0932

> <State Penalty>
0.0932

> <docking score>
-10.4549

> <glide emodel>
-92.4045

> <glide gscore>
-10.5481

> <Source File>
glide-dock_SP_7_pv.maegz

> <Source Path>
C:\Users\yujie\Documents\Schrodinger\glide-dock_SP_7

> <entry id>
11268

> <job name>
glide-dock_SP_7

> <subgroup title>
glide-dock_SP_7_pv

> <subgroupid>
glide-dock_SP_7_pv

$$$$
