Tyk2_ejm_44
                    3D
 Schrodinger Suite 2020-3.
 41 42  0  0  1  0            999 V2000
   -7.1204  -14.0840  -20.7634 C   0  0  0  0  0  0
   -8.1055  -12.9191  -21.0292 C   0  0  0  0  0  0
   -7.7067  -12.2732  -22.3825 C   0  0  0  0  0  0
   -9.5378  -13.4879  -21.1765 C   0  0  0  0  0  0
   -7.9876  -11.8882  -19.8612 C   0  0  0  0  0  0
   -7.0176  -11.1293  -19.8396 O   0  0  0  0  0  0
   -8.9371  -11.9151  -18.8929 N   0  0  0  0  0  0
   -9.0734  -11.1193  -17.7409 C   0  0  0  0  0  0
   -8.3462   -9.9403  -17.5049 C   0  0  0  0  0  0
   -8.5430   -9.2365  -16.3142 C   0  0  0  0  0  0
   -7.7975   -8.0566  -16.1691 N   0  0  0  0  0  0
   -7.6999   -7.2197  -15.1179 C   0  0  0  0  0  0
   -8.1732   -7.4030  -13.9963 O   0  0  0  0  0  0
   -6.9059   -5.9776  -15.4221 C   0  0  0  0  0  0
   -7.5565   -4.7320  -15.5434 C   0  0  0  0  0  0
   -9.2702   -4.5477  -15.3387 Cl  0  0  0  0  0  0
   -6.8200   -3.5883  -15.8516 C   0  0  0  0  0  0
   -5.4435   -3.6579  -16.0369 C   0  0  0  0  0  0
   -4.7939   -4.8830  -15.9271 C   0  0  0  0  0  0
   -5.5090   -6.0393  -15.6174 C   0  0  0  0  0  0
   -4.6101   -7.5159  -15.4931 Cl  0  0  0  0  0  0
   -9.4736   -9.7250  -15.3842 C   0  0  0  0  0  0
  -10.1725  -10.8916  -15.6926 C   0  0  0  0  0  0
   -9.9858  -11.5830  -16.8460 N   0  0  0  0  0  0
   -7.1278  -14.8001  -21.5858 H   0  0  0  0  0  0
   -7.3706  -14.6375  -19.8610 H   0  0  0  0  0  0
   -6.0928  -13.7307  -20.6620 H   0  0  0  0  0  0
   -8.4213  -11.5159  -22.6954 H   0  0  0  0  0  0
   -6.7216  -11.8039  -22.3490 H   0  0  0  0  0  0
   -7.6760  -13.0133  -23.1828 H   0  0  0  0  0  0
  -10.2443  -12.7162  -21.4772 H   0  0  0  0  0  0
   -9.5804  -14.2697  -21.9360 H   0  0  0  0  0  0
   -9.9247  -13.9188  -20.2565 H   0  0  0  0  0  0
   -9.6560  -12.6161  -18.9898 H   0  0  0  0  0  0
   -7.6424   -9.5569  -18.2263 H   0  0  0  0  0  0
   -7.2742   -7.7872  -16.9878 H   0  0  0  0  0  0
   -7.3211   -2.6379  -15.9427 H   0  0  0  0  0  0
   -4.8821   -2.7630  -16.2637 H   0  0  0  0  0  0
   -3.7262   -4.9365  -16.0823 H   0  0  0  0  0  0
   -9.6814   -9.2202  -14.4538 H   0  0  0  0  0  0
  -10.9007  -11.2879  -14.9992 H   0  0  0  0  0  0
  1  2  1  0  0  0
  1 25  1  0  0  0
  1 26  1  0  0  0
  1 27  1  0  0  0
  2  3  1  0  0  0
  2  4  1  0  0  0
  2  5  1  0  0  0
  3 28  1  0  0  0
  3 29  1  0  0  0
  3 30  1  0  0  0
  4 31  1  0  0  0
  4 32  1  0  0  0
  4 33  1  0  0  0
  5  6  2  0  0  0
  5  7  1  0  0  0
  7  8  1  0  0  0
  7 34  1  0  0  0
  8 24  1  0  0  0
  8  9  2  0  0  0
  9 10  1  0  0  0
  9 35  1  0  0  0
 10 11  1  0  0  0
 10 22  2  0  0  0
 11 12  1  0  0  0
 11 36  1  0  0  0
 12 13  2  0  0  0
 12 14  1  0  0  0
 14 20  1  0  0  0
 14 15  2  0  0  0
 15 16  1  0  0  0
 15 17  1  0  0  0
 17 18  2  0  0  0
 17 37  1  0  0  0
 18 19  1  0  0  0
 18 38  1  0  0  0
 19 20  2  0  0  0
 19 39  1  0  0  0
 20 21  1  0  0  0
 22 23  1  0  0  0
 22 40  1  0  0  0
 23 24  2  0  0  0
 23 41  1  0  0  0
M  END
> <s_m_source_file>
/home/user-home/yujie/0_PBCNetv2/data/FEP/Tyk2/inp_ligprep.csv

> <i_m_source_file_index>
15

> <i_lp_mmshare_version>
51139

> <i_f3d_flags>
0

> <s_epik_input>
W0NIM11DKFtDSDNdKShbQ0gzXSlDKD1PKVtOSF1jMVtjSF1jKFtjSF1bY0hdbjEpW05IXUMoPU8pYzJjKENsKVtjSF1bY0hdW2NIXWMyQ2w=

> <s_epik_cmdline>
J2VwaWtfcHl0aG9uJywgJy1waHQnLCAnMi4wJywgJy1waCcsICc3LjQnLCAnLXRuJywgJzgnLCAnLW1hJywgJzIwMCcsICctaW1hZScsICc8aW5maWxlLm1hZT4nLCAnLW9tYWUnLCAnPG91dGZpbGUubWFlPic=

> <r_epik_Ionization_Penalty>
  0.0034

> <r_epik_Ionization_Penalty_Charging>
  0.0000

> <r_epik_Ionization_Penalty_Neutral>
  0.0034

> <r_epik_State_Penalty>
  0.0040

> <r_epik_Charging_Adjusted_Penalty>
0.0039803

> <i_epik_Tot_Q>
0

> <i_epik_Tot_abs_Q>
0

> <s_lp_Force_Field>
OPLS3e

> <r_lp_Energy>
41.0295

> <b_lp_Chiralities_Consistent>
1

> <s_lp_Variant>
Tyk2_ejm_44-1

> <s_i_glide_gridfile>
Tyk2-001-gridgen

> <i_i_glide_lignum>
17

> <i_i_glide_rotatable_bonds>
6

> <r_i_docking_score>
-6.92909266088111

> <r_i_glide_ligand_efficiency>
-0.28871219420338

> <r_i_glide_ligand_efficiency_sa>
-0.832790075182449

> <r_i_glide_ligand_efficiency_ln>
-1.65844982909281

> <r_i_glide_gscore>
-6.93307296088111

> <r_i_glide_lipo>
-3.26146273281796

> <r_i_glide_hbond>
0

> <r_i_glide_metal>
-0

> <r_i_glide_rewards>
-1.52193098407745

> <r_i_glide_evdw>
-46.0557823181152

> <r_i_glide_ecoul>
-3.7619001865387

> <r_i_glide_erotb>
0.717394899900872

> <r_i_glide_esite>
0

> <r_i_glide_emodel>
-61.7051541033509

> <r_i_glide_energy>
-49.8176825046539

> <r_i_glide_einternal>
8.39485740661621

> <i_i_glide_confnum>
81

> <i_i_glide_posenum>
20

> <r_i_glide_eff_state_penalty>
0.0039803

$$$$
