lig_shp2_Example5
                    3D
 Schrodinger Suite 2020-3.
 46 48  0  0  1  0            999 V2000
   16.5431   40.0657    3.1346 C   0  0  0  0  0  0
   16.4604   39.9834    4.5543 O   0  0  0  0  0  0
   17.6067   40.1322    5.2989 C   0  0  0  0  0  0
   17.4482   40.1958    6.6812 C   0  0  0  0  0  0
   18.5165   40.5403    7.5029 C   0  0  0  0  0  0
   18.2274   40.7301    9.1986 Cl  0  0  0  0  0  0
   19.7756   40.7861    6.9368 C   0  0  0  0  0  0
   21.0724   41.3208    7.9379 Cl  0  0  0  0  0  0
   19.9701   40.6644    5.5504 C   0  0  0  0  0  0
   21.2847   40.8911    4.8893 C   0  0  0  0  0  0
   21.4517   41.9324    3.9688 C   0  0  0  0  0  0
   22.6027   42.1391    3.2862 N   0  0  0  0  0  0
   23.6255   41.2707    3.5216 C   0  0  0  0  0  0
   24.8003   41.4201    2.7826 N   0  0  0  0  0  0
   25.0978   42.5670    1.9059 C   0  0  0  0  0  0
   26.3189   43.3521    2.4432 C   0  0  0  0  0  0
   27.5914   42.4735    2.5536 C   0  0  0  0  0  0
   28.0921   42.0694    1.1473 C   0  0  0  0  0  0
   28.6644   43.1834    3.2114 N   0  0  0  0  0  0
   27.2092   41.2327    3.3922 C   0  0  0  0  0  0
   25.9593   40.5041    2.8458 C   0  0  0  0  0  0
   23.5666   40.2482    4.4145 N   0  0  0  0  0  0
   22.4029   40.0624    5.0793 C   0  0  0  0  0  0
   22.3542   38.9599    5.9212 N   0  0  0  0  0  0
   18.8767   40.3436    4.7470 C   0  0  0  0  0  0
   29.5145   42.6307    3.1207 H   0  0  0  0  0  0
   28.8114   44.0705    2.7425 H   0  0  0  0  0  0
   15.5401   39.9857    2.7204 H   0  0  0  0  0  0
   16.9552   41.0194    2.8050 H   0  0  0  0  0  0
   17.1558   39.2595    2.7294 H   0  0  0  0  0  0
   16.4719   40.0276    7.1132 H   0  0  0  0  0  0
   20.6430   42.6122    3.7447 H   0  0  0  0  0  0
   24.2481   43.2413    1.7947 H   0  0  0  0  0  0
   25.2926   42.1864    0.9021 H   0  0  0  0  0  0
   26.0511   43.7496    3.4242 H   0  0  0  0  0  0
   26.4932   44.2267    1.8140 H   0  0  0  0  0  0
   27.3606   41.5107    0.5698 H   0  0  0  0  0  0
   28.9871   41.4498    1.2118 H   0  0  0  0  0  0
   28.3631   42.9464    0.5598 H   0  0  0  0  0  0
   28.0581   40.5512    3.4802 H   0  0  0  0  0  0
   26.9818   41.5348    4.4174 H   0  0  0  0  0  0
   25.7560   39.6183    3.4491 H   0  0  0  0  0  0
   26.1422   40.1273    1.8381 H   0  0  0  0  0  0
   21.5167   38.7892    6.4541 H   0  0  0  0  0  0
   23.2053   38.4414    6.1151 H   0  0  0  0  0  0
   19.0281   40.2890    3.6802 H   0  0  0  0  0  0
  1  2  1  0  0  0
  1 28  1  0  0  0
  1 29  1  0  0  0
  1 30  1  0  0  0
  2  3  1  0  0  0
  3 25  1  0  0  0
  3  4  2  0  0  0
  4  5  1  0  0  0
  4 31  1  0  0  0
  5  6  1  0  0  0
  5  7  2  0  0  0
  7  8  1  0  0  0
  7  9  1  0  0  0
  9 10  1  0  0  0
  9 25  2  0  0  0
 10 23  1  0  0  0
 10 11  2  0  0  0
 11 12  1  0  0  0
 11 32  1  0  0  0
 12 13  2  0  0  0
 13 14  1  0  0  0
 13 22  1  0  0  0
 14 21  1  0  0  0
 14 15  1  0  0  0
 15 16  1  0  0  0
 15 33  1  0  0  0
 15 34  1  0  0  0
 16 17  1  0  0  0
 16 35  1  0  0  0
 16 36  1  0  0  0
 17 18  1  0  0  0
 17 19  1  0  0  0
 17 20  1  0  0  0
 18 37  1  0  0  0
 18 38  1  0  0  0
 18 39  1  0  0  0
 19 26  1  0  0  0
 19 27  1  0  0  0
 20 21  1  0  0  0
 20 40  1  0  0  0
 20 41  1  0  0  0
 21 42  1  0  0  0
 21 43  1  0  0  0
 22 23  2  0  0  0
 23 24  1  0  0  0
 24 44  1  0  0  0
 24 45  1  0  0  0
 25 46  1  0  0  0
M  END
> <s_m_source_file>
/home/user-home/yujie/0_PBCNetv2/data/FEP/shp2/inp_ligprep.csv

> <i_m_source_file_index>
21

> <i_lp_mmshare_version>
51139

> <i_f3d_flags>
0

> <s_epik_input>
W0NIM11PYzFbY0hdYyhDbCljKENsKWMoW2NIXTEpLWMyW2NIXW5jKG5jMltOSDJdKU4oW0NIMl1bQ0gyXTMpW0NIMl1bQ0gyXUMzKFtDSDNdKVtOSDJd

> <s_epik_cmdline>
J2VwaWtfcHl0aG9uJywgJy1waHQnLCAnMi4wJywgJy1waCcsICc3LjQnLCAnLXRuJywgJzgnLCAnLW1hJywgJzIwMCcsICctaW1hZScsICc8aW5maWxlLm1hZT4nLCAnLW9tYWUnLCAnPG91dGZpbGUubWFlPic=

> <r_lp_tautomer_probability>
1

> <r_epik_Ionization_Penalty>
  2.2567

> <r_epik_Ionization_Penalty_Charging>
  0.0000

> <r_epik_Ionization_Penalty_Neutral>
  2.2567

> <r_epik_State_Penalty>
  2.5263

> <r_epik_Charging_Adjusted_Penalty>
2.52631

> <i_epik_Tot_Q>
0

> <i_epik_Tot_abs_Q>
0

> <s_lp_Force_Field>
OPLS3e

> <r_lp_Energy>
39.7561

> <b_lp_Chiralities_Consistent>
1

> <s_lp_Variant>
lig_shp2_Example5-4

> <s_i_glide_gridfile>
shp2-001-gridgen

> <i_i_glide_lignum>
58

> <i_i_glide_rotatable_bonds>
3

> <r_i_docking_score>
-4.62510586510748

> <r_i_glide_ligand_efficiency>
-0.185004234604299

> <r_i_glide_ligand_efficiency_sa>
-0.540955663047042

> <r_i_glide_ligand_efficiency_ln>
-1.09628869326866

> <r_i_glide_gscore>
-7.15141586510748

> <r_i_glide_lipo>
-2.13923674065881

> <r_i_glide_hbond>
-0.672473529273861

> <r_i_glide_metal>
-0

> <r_i_glide_rewards>
-1.31339251728228

> <r_i_glide_evdw>
-45.2032127380371

> <r_i_glide_ecoul>
-6.87946319580078

> <r_i_glide_erotb>
0.265767038379447

> <r_i_glide_esite>
0

> <r_i_glide_emodel>
-73.3101352900227

> <r_i_glide_energy>
-52.0826759338379

> <r_i_glide_einternal>
1.42011022567749

> <i_i_glide_confnum>
8

> <i_i_glide_posenum>
260

> <r_i_glide_eff_state_penalty>
2.52631

$$$$
