lig_shp2_7
                    3D
 Schrodinger Suite 2020-3.
 47 49  0  0  1  0            999 V2000
   28.1909   44.3835    4.7206 C   0  0  0  0  0  0
   28.5518   43.5835    3.4629 N   0  3  0  0  0  0
   30.0149   43.1835    3.4914 C   0  0  0  0  0  0
   27.5142   42.6313    2.8246 C   0  0  0  0  0  0
   27.1795   41.4451    3.7387 C   0  0  0  0  0  0
   26.0080   40.6081    3.1920 C   0  0  0  0  0  0
   24.8187   41.4645    2.9353 N   0  0  0  0  0  0
   23.5456   41.2788    3.5726 C   0  0  0  0  0  0
   22.4895   42.0721    3.2955 N   0  3  0  0  0  0
   21.2980   41.9049    3.9076 C   0  0  0  0  0  0
   21.1488   40.8892    4.8633 C   0  0  0  0  0  0
   19.8355   40.6435    5.5153 C   0  0  0  0  0  0
   18.8008   40.1138    4.7365 C   0  0  0  0  0  0
   17.5789   39.7790    5.3119 C   0  0  0  0  0  0
   17.3720   39.9835    6.6742 C   0  0  0  0  0  0
   18.3812   40.5338    7.4637 C   0  0  0  0  0  0
   18.0672   40.7832    9.1472 Cl  0  0  0  0  0  0
   19.6176   40.8696    6.8900 C   0  0  0  0  0  0
   20.8597   41.5823    7.8762 Cl  0  0  0  0  0  0
   22.2793   40.0906    5.1210 C   0  0  0  0  0  0
   22.2371   39.0369    6.0247 N   0  0  0  0  0  0
   23.4628   40.2827    4.4933 N   0  0  0  0  0  0
   25.0950   42.5450    1.9574 C   0  0  0  0  0  0
   26.2455   43.4368    2.4578 C   0  0  0  0  0  0
   27.6604   43.7769    5.4538 H   0  0  0  0  0  0
   27.6603   45.2205    4.3207 H   0  0  0  0  0  0
   29.0687   44.8791    5.1205 H   0  0  0  0  0  0
   30.0604   42.4817    4.3208 H   0  0  0  0  0  0
   30.2234   42.7835    2.4990 H   0  0  0  0  0  0
   30.6228   44.0683    3.6823 H   0  0  0  0  0  0
   27.9284   42.2255    1.8981 H   0  0  0  0  0  0
   28.0603   40.8359    3.9206 H   0  0  0  0  0  0
   26.8880   41.8131    4.7204 H   0  0  0  0  0  0
   26.2599   40.0936    2.2632 H   0  0  0  0  0  0
   25.7682   39.8224    3.9047 H   0  0  0  0  0  0
   20.5066   42.5761    3.6063 H   0  0  0  0  0  0
   18.9544   39.9210    3.6825 H   0  0  0  0  0  0
   16.8065   39.3345    4.7003 H   0  0  0  0  0  0
   16.4311   39.6986    7.1229 H   0  0  0  0  0  0
   21.3764   38.8385    6.5086 H   0  0  0  0  0  0
   23.0820   38.5080    6.2196 H   0  0  0  0  0  0
   25.3152   42.0826    0.9939 H   0  0  0  0  0  0
   24.2103   43.1597    1.7954 H   0  0  0  0  0  0
   25.8825   43.9603    3.3444 H   0  0  0  0  0  0
   26.4642   44.2388    1.7509 H   0  0  0  0  0  0
   28.5487   44.3312    2.7710 H   0  0  0  0  0  0
   22.6009   42.8074    2.6116 H   0  0  0  0  0  0
  1  2  1  0  0  0
  1 25  1  0  0  0
  1 26  1  0  0  0
  1 27  1  0  0  0
  2  3  1  0  0  0
  2  4  1  0  0  0
  2 46  1  0  0  0
  3 28  1  0  0  0
  3 29  1  0  0  0
  3 30  1  0  0  0
  4 24  1  0  0  0
  4  5  1  0  0  0
  4 31  1  0  0  0
  5  6  1  0  0  0
  5 32  1  0  0  0
  5 33  1  0  0  0
  6  7  1  0  0  0
  6 34  1  0  0  0
  6 35  1  0  0  0
  7  8  1  0  0  0
  7 23  1  0  0  0
  8 22  1  0  0  0
  8  9  2  0  0  0
  9 10  1  0  0  0
  9 47  1  0  0  0
 10 11  2  0  0  0
 10 36  1  0  0  0
 11 12  1  0  0  0
 11 20  1  0  0  0
 12 18  1  0  0  0
 12 13  2  0  0  0
 13 14  1  0  0  0
 13 37  1  0  0  0
 14 15  2  0  0  0
 14 38  1  0  0  0
 15 16  1  0  0  0
 15 39  1  0  0  0
 16 17  1  0  0  0
 16 18  2  0  0  0
 18 19  1  0  0  0
 20 21  1  0  0  0
 20 22  2  0  0  0
 21 40  1  0  0  0
 21 41  1  0  0  0
 23 24  1  0  0  0
 23 42  1  0  0  0
 23 43  1  0  0  0
 24 44  1  0  0  0
 24 45  1  0  0  0
M  CHG  2   2   1   9   1
M  END
> <s_m_source_file>
/home/user-home/yujie/0_PBCNetv2/data/FEP/shp2/inp_ligprep.csv

> <i_m_source_file_index>
1

> <i_lp_mmshare_version>
51139

> <i_f3d_flags>
0

> <s_epik_input>
W0NIM11OKFtDSDNdKVtDSF0xW0NIMl1bQ0gyXU4oW0NIMl1bQ0gyXTEpYzJuW2NIXWMoYyhuMilbTkgyXSktYzNbY0hdW2NIXVtjSF1jKENsKWMzQ2w=

> <s_epik_cmdline>
J2VwaWtfcHl0aG9uJywgJy1waHQnLCAnMi4wJywgJy1waCcsICc3LjQnLCAnLXRuJywgJzgnLCAnLW1hJywgJzIwMCcsICctaW1hZScsICc8aW5maWxlLm1hZT4nLCAnLW9tYWUnLCAnPG91dGZpbGUubWFlPic=

> <r_lp_tautomer_probability>
0.575011

> <r_epik_Ionization_Penalty>
  1.3815

> <r_epik_Ionization_Penalty_Charging>
  1.3814

> <r_epik_Ionization_Penalty_Neutral>
  0.0001

> <r_epik_State_Penalty>
  1.5155

> <r_epik_Charging_Adjusted_Penalty>
2.8969

> <i_epik_Tot_Q>
2

> <i_epik_Tot_abs_Q>
2

> <s_lp_Force_Field>
OPLS3e

> <r_lp_Energy>
60.6947

> <b_lp_Chiralities_Consistent>
1

> <s_lp_Variant>
lig_shp2_7-2

> <s_i_glide_gridfile>
shp2-001-gridgen

> <i_i_glide_lignum>
2

> <i_i_glide_rotatable_bonds>
3

> <r_i_docking_score>
-5.8489324425963

> <r_i_glide_ligand_efficiency>
-0.243705518441512

> <r_i_glide_ligand_efficiency_sa>
-0.70296835776294

> <r_i_glide_ligand_efficiency_ln>
-1.39991792353456

> <r_i_glide_gscore>
-7.3644124425963

> <r_i_glide_lipo>
-2.23198005654432

> <r_i_glide_hbond>
-0.32

> <r_i_glide_metal>
-0

> <r_i_glide_rewards>
-1.41591543647592

> <r_i_glide_evdw>
-26.009298324585

> <r_i_glide_ecoul>
-15.8676443099976

> <r_i_glide_erotb>
0.284094613152816

> <r_i_glide_esite>
0

> <r_i_glide_emodel>
-71.0436567734859

> <r_i_glide_energy>
-41.8769426345825

> <r_i_glide_einternal>
2.68299198150635

> <i_i_glide_confnum>
4

> <i_i_glide_posenum>
259

> <r_i_glide_eff_state_penalty>
1.51548

$$$$
