lig_shp2_Example23
                    3D
 Schrodinger Suite 2020-3.
 43 45  0  0  1  0            999 V2000
   27.6195   42.2209    1.2088 C   0  0  0  0  0  0
   27.3898   42.3058    2.7313 C   0  0  0  0  0  0
   28.7083   42.7835    3.3639 N   0  3  0  0  0  0
   26.3015   43.3224    3.1111 C   0  0  0  0  0  0
   24.8956   42.8275    2.7375 C   0  0  0  0  0  0
   24.5639   41.5410    3.3592 N   0  0  0  0  0  0
   23.2703   41.2260    3.7828 C   0  0  0  0  0  0
   23.2262   40.2476    4.7270 N   0  0  0  0  0  0
   22.0527   39.9811    5.3465 C   0  0  0  0  0  0
   22.0610   38.9836    6.3193 N   0  0  0  0  0  0
   20.8849   40.6802    5.0134 C   0  0  0  0  0  0
   19.5861   40.4945    5.7136 C   0  0  0  0  0  0
   18.4932   39.9842    5.0042 C   0  0  0  0  0  0
   17.2841   39.7370    5.6484 C   0  0  0  0  0  0
   17.1537   39.9835    7.0133 C   0  0  0  0  0  0
   18.2265   40.5058    7.7336 C   0  0  0  0  0  0
   18.0362   40.7841    9.4321 Cl  0  0  0  0  0  0
   19.4367   40.7850    7.0840 C   0  0  0  0  0  0
   20.7246   41.5465    7.9671 Cl  0  0  0  0  0  0
   20.8911   41.5838    4.0002 N   0  0  0  0  0  0
   22.0670   41.8559    3.3758 C   0  0  0  0  0  0
   21.9424   42.9476    2.0364 Cl  0  0  0  0  0  0
   25.5646   40.5145    2.9914 C   0  0  0  0  0  0
   27.0097   40.9500    3.3636 C   0  0  0  0  0  0
   28.6283   42.8206    4.3715 H   0  0  0  0  0  0
   29.4721   42.1483    3.1262 H   0  0  0  0  0  0
   26.7278   41.8831    0.6817 H   0  0  0  0  0  0
   28.4222   41.5232    0.9650 H   0  0  0  0  0  0
   27.8883   43.1908    0.7882 H   0  0  0  0  0  0
   26.3113   43.5384    4.1809 H   0  0  0  0  0  0
   26.4618   44.2876    2.6288 H   0  0  0  0  0  0
   24.2146   43.5832    3.1196 H   0  0  0  0  0  0
   24.7568   42.7717    1.6564 H   0  0  0  0  0  0
   21.2025   38.7335    6.7843 H   0  0  0  0  0  0
   22.9324   38.4998    6.5248 H   0  0  0  0  0  0
   18.5896   39.7441    3.9531 H   0  0  0  0  0  0
   16.4606   39.3130    5.0930 H   0  0  0  0  0  0
   16.2250   39.7522    7.5172 H   0  0  0  0  0  0
   25.3531   39.5829    3.5164 H   0  0  0  0  0  0
   25.4731   40.2962    1.9257 H   0  0  0  0  0  0
   27.7296   40.1795    3.0821 H   0  0  0  0  0  0
   27.0651   40.9951    4.4535 H   0  0  0  0  0  0
   28.9355   43.7105    3.0310 H   0  0  0  0  0  0
  1  2  1  0  0  0
  1 27  1  0  0  0
  1 28  1  0  0  0
  1 29  1  0  0  0
  2 24  1  0  0  0
  2  3  1  0  0  0
  2  4  1  0  0  0
  3 25  1  0  0  0
  3 26  1  0  0  0
  3 43  1  0  0  0
  4  5  1  0  0  0
  4 30  1  0  0  0
  4 31  1  0  0  0
  5  6  1  0  0  0
  5 32  1  0  0  0
  5 33  1  0  0  0
  6  7  1  0  0  0
  6 23  1  0  0  0
  7 21  1  0  0  0
  7  8  2  0  0  0
  8  9  1  0  0  0
  9 10  1  0  0  0
  9 11  2  0  0  0
 10 34  1  0  0  0
 10 35  1  0  0  0
 11 12  1  0  0  0
 11 20  1  0  0  0
 12 18  1  0  0  0
 12 13  2  0  0  0
 13 14  1  0  0  0
 13 36  1  0  0  0
 14 15  2  0  0  0
 14 37  1  0  0  0
 15 16  1  0  0  0
 15 38  1  0  0  0
 16 17  1  0  0  0
 16 18  2  0  0  0
 18 19  1  0  0  0
 20 21  2  0  0  0
 21 22  1  0  0  0
 23 24  1  0  0  0
 23 39  1  0  0  0
 23 40  1  0  0  0
 24 41  1  0  0  0
 24 42  1  0  0  0
M  CHG  1   3   1
M  END
> <s_m_source_file>
/home/user-home/yujie/0_PBCNetv2/data/FEP/shp2/inp_ligprep.csv

> <i_m_source_file_index>
19

> <i_lp_mmshare_version>
51139

> <i_f3d_flags>
0

> <s_epik_input>
W0NIM11DMShbTkgyXSlbQ0gyXVtDSDJdTihbQ0gyXVtDSDJdMSljMm5jKFtOSDJdKWMobmMyQ2wpLWMzW2NIXVtjSF1bY0hdYyhDbCljM0Ns

> <s_epik_cmdline>
J2VwaWtfcHl0aG9uJywgJy1waHQnLCAnMi4wJywgJy1waCcsICc3LjQnLCAnLXRuJywgJzgnLCAnLW1hJywgJzIwMCcsICctaW1hZScsICc8aW5maWxlLm1hZT4nLCAnLW9tYWUnLCAnPG91dGZpbGUubWFlPic=

> <r_lp_tautomer_probability>
1

> <r_epik_Ionization_Penalty>
  0.0130

> <r_epik_Ionization_Penalty_Charging>
  0.0130

> <r_epik_Ionization_Penalty_Neutral>
  0.0000

> <r_epik_State_Penalty>
  0.0101

> <r_epik_Charging_Adjusted_Penalty>
0.0231465

> <i_epik_Tot_Q>
1

> <i_epik_Tot_abs_Q>
1

> <s_lp_Force_Field>
OPLS3e

> <r_lp_Energy>
43.0194

> <b_lp_Chiralities_Consistent>
1

> <s_lp_Variant>
lig_shp2_Example23-1

> <s_i_glide_gridfile>
shp2-001-gridgen

> <i_i_glide_lignum>
50

> <i_i_glide_rotatable_bonds>
2

> <r_i_docking_score>
-8.00850989554036

> <r_i_glide_ligand_efficiency>
-0.333687912314182

> <r_i_glide_ligand_efficiency_sa>
-0.96252249528416

> <r_i_glide_ligand_efficiency_ln>
-1.91680390457617

> <r_i_glide_gscore>
-8.01862769554036

> <r_i_glide_lipo>
-2.50260016297397

> <r_i_glide_hbond>
-0.52

> <r_i_glide_metal>
-0

> <r_i_glide_rewards>
-0.97028946839787

> <r_i_glide_evdw>
-49.0794334411621

> <r_i_glide_ecoul>
-11.9177465438843

> <r_i_glide_erotb>
0.259131409922029

> <r_i_glide_esite>
-0.0432358204498018

> <r_i_glide_emodel>
-96.092791022162

> <r_i_glide_energy>
-60.9971799850464

> <r_i_glide_einternal>
1.30281400680542

> <i_i_glide_confnum>
5

> <i_i_glide_posenum>
329

> <r_i_glide_eff_state_penalty>
0.0101178

$$$$
