lig_cmet_CHEMBL3402760_1
                    3D
 Schrodinger Suite 2020-3.
 62 65  0  0  1  0            999 V2000
  -27.8960   24.2462   98.9652 C   0  0  0  0  0  0
  -27.7216   22.7432   98.6534 N   0  3  0  0  0  0
  -29.0250   21.9716   98.9613 C   0  0  0  0  0  0
  -27.1993   22.5004   97.2163 C   0  0  0  0  0  0
  -26.5048   21.1302   97.1382 C   0  0  0  0  0  0
  -25.9532   20.7966   95.7397 C   0  0  0  0  0  0
  -25.0153   19.7277   95.8445 O   0  0  0  0  0  0
  -23.7215   19.9883   96.2511 C   0  0  0  0  0  0
  -23.1082   21.2502   96.3028 C   0  0  0  0  0  0
  -21.8092   21.4211   96.6526 N   0  0  0  0  0  0
  -21.1003   20.3027   96.9777 C   0  0  0  0  0  0
  -19.6587   20.4741   97.3671 C   0  0  0  0  0  0
  -18.8879   19.3879   97.8153 C   0  0  0  0  0  0
  -17.5650   19.5502   98.2214 C   0  0  0  0  0  0
  -16.9721   20.8072   98.1777 C   0  0  0  0  0  0
  -17.6979   21.9017   97.7071 C   0  0  0  0  0  0
  -17.0416   23.2710   97.5920 C   0  0  0  0  0  0
  -17.4573   24.2081   98.6469 N   0  0  0  0  0  0
  -18.5663   25.0169   98.3532 N   0  0  0  0  0  0
  -18.9418   25.9747   99.1398 C   0  0  0  0  0  0
  -20.0500   26.9078   98.8178 C   0  0  0  0  0  0
  -20.6621   27.6813   99.8154 C   0  0  0  0  0  0
  -21.6247   28.6371   99.5073 C   0  0  0  0  0  0
  -22.0138   28.8328   98.1903 C   0  0  0  0  0  0
  -21.4383   28.0674   97.1758 C   0  0  0  0  0  0
  -21.8457   28.3101   95.8028 C   0  0  0  0  0  0
  -22.1749   28.5095   94.7124 N   0  0  0  0  0  0
  -20.4678   27.1021   97.4875 C   0  0  0  0  0  0
  -18.2079   26.1049  100.3905 C   0  0  0  0  0  0
  -17.1833   25.2803  100.7078 C   0  0  0  0  0  0
  -16.7057   24.2508   99.8060 C   0  0  0  0  0  0
  -15.7058   23.5707  100.0529 O   0  0  0  0  0  0
  -19.0260   21.7286   97.3090 C   0  0  0  0  0  0
  -21.6193   19.0430   96.9817 N   0  0  0  0  0  0
  -22.9183   18.9076   96.6147 C   0  0  0  0  0  0
  -28.6515   24.6475   98.2853 H   0  0  0  0  0  0
  -28.2090   24.3323  100.0076 H   0  0  0  0  0  0
  -26.9289   24.7313   98.8175 H   0  0  0  0  0  0
  -29.8066   22.3497   98.2961 H   0  0  0  0  0  0
  -28.8463   20.9096   98.7897 H   0  0  0  0  0  0
  -29.2745   22.1475  100.0100 H   0  0  0  0  0  0
  -26.4787   23.2966   97.0102 H   0  0  0  0  0  0
  -28.0503   22.6066   96.5383 H   0  0  0  0  0  0
  -27.1891   20.3280   97.4147 H   0  0  0  0  0  0
  -25.6954   21.1046   97.8706 H   0  0  0  0  0  0
  -25.5430   21.6674   95.2273 H   0  0  0  0  0  0
  -26.7718   20.4533   95.1049 H   0  0  0  0  0  0
  -23.6293   22.1549   96.0396 H   0  0  0  0  0  0
  -19.3108   18.3955   97.8573 H   0  0  0  0  0  0
  -17.0039   18.6984   98.5767 H   0  0  0  0  0  0
  -15.9456   20.9281   98.4959 H   0  0  0  0  0  0
  -17.2977   23.6898   96.6162 H   0  0  0  0  0  0
  -15.9542   23.1641   97.5470 H   0  0  0  0  0  0
  -20.4189   27.5581  100.8582 H   0  0  0  0  0  0
  -22.0784   29.2144  100.3015 H   0  0  0  0  0  0
  -22.7640   29.5810   97.9704 H   0  0  0  0  0  0
  -20.0106   26.5270   96.6919 H   0  0  0  0  0  0
  -18.4430   26.8731  101.1088 H   0  0  0  0  0  0
  -16.6540   25.4098  101.6410 H   0  0  0  0  0  0
  -19.5688   22.5945   96.9583 H   0  0  0  0  0  0
  -23.3175   17.9046   96.6014 H   0  0  0  0  0  0
  -27.0091   22.3909   99.2818 H   0  0  0  0  0  0
  1  2  1  0  0  0
  1 36  1  0  0  0
  1 37  1  0  0  0
  1 38  1  0  0  0
  2  3  1  0  0  0
  2  4  1  0  0  0
  2 62  1  0  0  0
  3 39  1  0  0  0
  3 40  1  0  0  0
  3 41  1  0  0  0
  4  5  1  0  0  0
  4 42  1  0  0  0
  4 43  1  0  0  0
  5  6  1  0  0  0
  5 44  1  0  0  0
  5 45  1  0  0  0
  6  7  1  0  0  0
  6 46  1  0  0  0
  6 47  1  0  0  0
  7  8  1  0  0  0
  8 35  1  0  0  0
  8  9  2  0  0  0
  9 10  1  0  0  0
  9 48  1  0  0  0
 10 11  2  0  0  0
 11 12  1  0  0  0
 11 34  1  0  0  0
 12 33  1  0  0  0
 12 13  2  0  0  0
 13 14  1  0  0  0
 13 49  1  0  0  0
 14 15  2  0  0  0
 14 50  1  0  0  0
 15 16  1  0  0  0
 15 51  1  0  0  0
 16 17  1  0  0  0
 16 33  2  0  0  0
 17 18  1  0  0  0
 17 52  1  0  0  0
 17 53  1  0  0  0
 18 31  1  0  0  0
 18 19  1  0  0  0
 19 20  2  0  0  0
 20 21  1  0  0  0
 20 29  1  0  0  0
 21 28  1  0  0  0
 21 22  2  0  0  0
 22 23  1  0  0  0
 22 54  1  0  0  0
 23 24  2  0  0  0
 23 55  1  0  0  0
 24 25  1  0  0  0
 24 56  1  0  0  0
 25 26  1  0  0  0
 25 28  2  0  0  0
 26 27  3  0  0  0
 28 57  1  0  0  0
 29 30  2  0  0  0
 29 58  1  0  0  0
 30 31  1  0  0  0
 30 59  1  0  0  0
 31 32  2  0  0  0
 33 60  1  0  0  0
 34 35  2  0  0  0
 35 61  1  0  0  0
M  CHG  1   2   1
M  END
> <s_m_source_file>
/home/user-home/yujie/0_PBCNetv2/data/FEP/cmet/inp_ligprep.csv

> <i_m_source_file_index>
15

> <i_lp_mmshare_version>
51139

> <i_f3d_flags>
0

> <s_epik_input>
W0NIM11OKFtDSDNdKVtDSDJdW0NIMl1bQ0gyXU9jMVtjSF1uYyhuW2NIXTEpLWMyW2NIXVtjSF1bY0hdYyhbY0hdMilbQ0gyXW4zbmMoW2NIXVtjSF1jMz1PKS1jNFtjSF1bY0hdW2NIXWMoQyNOKVtjSF00

> <s_epik_cmdline>
J2VwaWtfcHl0aG9uJywgJy1waHQnLCAnMi4wJywgJy1waCcsICc3LjQnLCAnLXRuJywgJzgnLCAnLW1hJywgJzIwMCcsICctaW1hZScsICc8aW5maWxlLm1hZT4nLCAnLW9tYWUnLCAnPG91dGZpbGUubWFlPic=

> <r_lp_tautomer_probability>
1

> <r_epik_Ionization_Penalty>
  0.0115

> <r_epik_Ionization_Penalty_Charging>
  0.0115

> <r_epik_Ionization_Penalty_Neutral>
  0.0000

> <r_epik_State_Penalty>
  0.0089

> <r_epik_Charging_Adjusted_Penalty>
0.0204027

> <i_epik_Tot_Q>
1

> <i_epik_Tot_abs_Q>
1

> <s_lp_Force_Field>
OPLS3e

> <r_lp_Energy>
83.421

> <b_lp_Chiralities_Consistent>
1

> <s_lp_Variant>
lig_cmet_CHEMBL3402760_1-1

> <s_i_glide_gridfile>
cmet-001-gridgen

> <i_i_glide_lignum>
24

> <i_i_glide_rotatable_bonds>
9

> <r_i_docking_score>
-10.3938778758407

> <r_i_glide_ligand_efficiency>
-0.296967939309733

> <r_i_glide_ligand_efficiency_sa>
-0.971401820330974

> <r_i_glide_ligand_efficiency_ln>
-2.28168687343779

> <r_i_glide_gscore>
-10.4027535858407

> <r_i_glide_lipo>
-4.62157365699255

> <r_i_glide_hbond>
-0.391869832216681

> <r_i_glide_metal>
-0

> <r_i_glide_rewards>
-1.73273180011555

> <r_i_glide_evdw>
-62.0124549865723

> <r_i_glide_ecoul>
-8.63068389892578

> <r_i_glide_erotb>
0.738647037651609

> <r_i_glide_esite>
0

> <r_i_glide_emodel>
-116.134843390363

> <r_i_glide_energy>
-70.643138885498

> <r_i_glide_einternal>
4.8815860748291

> <i_i_glide_confnum>
169

> <i_i_glide_posenum>
20

> <r_i_glide_eff_state_penalty>
0.00887571

$$$$
