lig_cmet_CHEMBL3402751_2100
                    3D
 Schrodinger Suite 2020-3.
 43 46  0  0  1  0            999 V2000
  -24.2818   22.2580   96.8009 C   0  0  0  0  0  0
  -23.2761   21.1325   96.7657 C   0  0  0  0  0  0
  -23.5119   19.7857   96.5164 C   0  0  0  0  0  0
  -22.0194   18.9098   96.6150 S   0  0  0  0  0  0
  -21.2192   20.4019   97.0156 C   0  0  0  0  0  0
  -19.7570   20.4619   97.3475 C   0  0  0  0  0  0
  -19.0753   19.3300   97.8150 C   0  0  0  0  0  0
  -17.7399   19.4099   98.2112 C   0  0  0  0  0  0
  -17.0607   20.6219   98.1247 C   0  0  0  0  0  0
  -17.7102   21.7586   97.6378 C   0  0  0  0  0  0
  -16.9589   23.0789   97.5079 C   0  0  0  0  0  0
  -17.2576   24.0202   98.5980 N   0  0  0  0  0  0
  -18.4010   24.8050   98.4272 N   0  0  0  0  0  0
  -18.8024   25.6459   99.3241 C   0  0  0  0  0  0
  -19.9812   26.5153   99.1202 C   0  0  0  0  0  0
  -20.1308   27.7246   99.8139 C   0  0  0  0  0  0
  -21.2206   28.5587   99.5724 C   0  0  0  0  0  0
  -21.3310   29.7340  100.2334 F   0  0  0  0  0  0
  -22.1907   28.1872   98.6441 C   0  0  0  0  0  0
  -22.0722   26.9796   97.9615 C   0  0  0  0  0  0
  -23.0131   26.6120   97.0627 F   0  0  0  0  0  0
  -20.9767   26.1509   98.1970 C   0  0  0  0  0  0
  -18.0100   25.7199  100.5413 C   0  0  0  0  0  0
  -16.8996   24.9644  100.7108 C   0  0  0  0  0  0
  -16.4196   24.0402   99.6943 C   0  0  0  0  0  0
  -15.3807   23.3847   99.8149 O   0  0  0  0  0  0
  -19.0539   21.6728   97.2552 C   0  0  0  0  0  0
  -22.0158   21.4465   97.0144 N   0  0  0  0  0  0
  -25.2494   21.9511   96.4021 H   0  0  0  0  0  0
  -23.9573   23.1184   96.2157 H   0  0  0  0  0  0
  -24.4543   22.6130   97.8152 H   0  0  0  0  0  0
  -24.4450   19.2862   96.2981 H   0  0  0  0  0  0
  -19.5797   18.3774   97.8847 H   0  0  0  0  0  0
  -17.2359   18.5263   98.5769 H   0  0  0  0  0  0
  -16.0241   20.6741   98.4304 H   0  0  0  0  0  0
  -15.8861   22.8870   97.4076 H   0  0  0  0  0  0
  -17.2275   23.5426   96.5587 H   0  0  0  0  0  0
  -19.3927   28.0604  100.5258 H   0  0  0  0  0  0
  -23.0375   28.8320   98.4611 H   0  0  0  0  0  0
  -20.9064   25.2231   97.6463 H   0  0  0  0  0  0
  -18.2859   26.3846  101.3474 H   0  0  0  0  0  0
  -16.3314   25.0430  101.6264 H   0  0  0  0  0  0
  -19.5572   22.5614   96.8976 H   0  0  0  0  0  0
  1  2  1  0  0  0
  1 29  1  0  0  0
  1 30  1  0  0  0
  1 31  1  0  0  0
  2 28  1  0  0  0
  2  3  2  0  0  0
  3  4  1  0  0  0
  3 32  1  0  0  0
  4  5  1  0  0  0
  5  6  1  0  0  0
  5 28  2  0  0  0
  6 27  1  0  0  0
  6  7  2  0  0  0
  7  8  1  0  0  0
  7 33  1  0  0  0
  8  9  2  0  0  0
  8 34  1  0  0  0
  9 10  1  0  0  0
  9 35  1  0  0  0
 10 11  1  0  0  0
 10 27  2  0  0  0
 11 12  1  0  0  0
 11 36  1  0  0  0
 11 37  1  0  0  0
 12 25  1  0  0  0
 12 13  1  0  0  0
 13 14  2  0  0  0
 14 15  1  0  0  0
 14 23  1  0  0  0
 15 22  1  0  0  0
 15 16  2  0  0  0
 16 17  1  0  0  0
 16 38  1  0  0  0
 17 18  1  0  0  0
 17 19  2  0  0  0
 19 20  1  0  0  0
 19 39  1  0  0  0
 20 21  1  0  0  0
 20 22  2  0  0  0
 22 40  1  0  0  0
 23 24  2  0  0  0
 23 41  1  0  0  0
 24 25  1  0  0  0
 24 42  1  0  0  0
 25 26  2  0  0  0
 27 43  1  0  0  0
M  END
> <s_m_source_file>
/home/user-home/yujie/0_PBCNetv2/data/FEP/cmet/inp_ligprep.csv

> <i_m_source_file_index>
3

> <i_lp_mmshare_version>
51139

> <i_f3d_flags>
0

> <s_epik_input>
W0NIM11jMVtjSF1zYyhuMSktYzJbY0hdW2NIXVtjSF1jKFtjSF0yKVtDSDJdbjNuYyhbY0hdW2NIXWMzPU8pLWM0W2NIXWMoRilbY0hdYyhGKVtjSF00

> <s_epik_cmdline>
J2VwaWtfcHl0aG9uJywgJy1waHQnLCAnMi4wJywgJy1waCcsICc3LjQnLCAnLXRuJywgJzgnLCAnLW1hJywgJzIwMCcsICctaW1hZScsICc8aW5maWxlLm1hZT4nLCAnLW9tYWUnLCAnPG91dGZpbGUubWFlPic=

> <r_lp_tautomer_probability>
1

> <r_epik_Ionization_Penalty>
  0.0001

> <r_epik_Ionization_Penalty_Charging>
  0.0000

> <r_epik_Ionization_Penalty_Neutral>
  0.0001

> <r_epik_State_Penalty>
 -0.0000

> <r_epik_Charging_Adjusted_Penalty>
1.65007e-08

> <i_epik_Tot_Q>
0

> <i_epik_Tot_abs_Q>
0

> <s_lp_Force_Field>
OPLS3e

> <r_lp_Energy>
49.2108

> <b_lp_Chiralities_Consistent>
1

> <s_lp_Variant>
lig_cmet_CHEMBL3402751_2100-1

> <s_i_glide_gridfile>
cmet-001-gridgen

> <i_i_glide_lignum>
4

> <i_i_glide_rotatable_bonds>
4

> <r_i_docking_score>
-9.75727198152097

> <r_i_glide_ligand_efficiency>
-0.348473999340035

> <r_i_glide_ligand_efficiency_sa>
-1.05817230220601

> <r_i_glide_ligand_efficiency_ln>
-2.25226485928901

> <r_i_glide_gscore>
-9.75727198152097

> <r_i_glide_lipo>
-4.59708994259835

> <r_i_glide_hbond>
-0.0645040201001499

> <r_i_glide_metal>
-0

> <r_i_glide_rewards>
-2.09543094391397

> <r_i_glide_evdw>
-55.7634963989258

> <r_i_glide_ecoul>
-4.72396850585938

> <r_i_glide_erotb>
0.500243955944623

> <r_i_glide_esite>
-0.00372093502793328

> <r_i_glide_emodel>
-95.1716673635712

> <r_i_glide_energy>
-60.4874649047852

> <r_i_glide_einternal>
1.39696943759918

> <i_i_glide_confnum>
24

> <i_i_glide_posenum>
24

> <r_i_glide_eff_state_penalty>
-0

$$$$
