lig_cmet_CHEMBL3402759_5
                    3D
 Schrodinger Suite 2023-4.
 65 68  0  0  1  0            999 V2000
  -22.2754   30.5993  100.0677 C   0  0  0  0  0  0
  -21.1688   29.7368  100.2735 O   0  0  0  0  0  0
  -21.1206   28.5561   99.5656 C   0  0  0  0  0  0
  -22.0865   28.1523   98.6102 C   0  0  0  0  0  0
  -21.9391   26.9340   97.9178 C   0  0  0  0  0  0
  -20.8275   26.1042   98.1611 C   0  0  0  0  0  0
  -19.8640   26.5022   99.1158 C   0  0  0  0  0  0
  -18.6846   25.6463   99.3945 C   0  0  0  0  0  0
  -17.9030   25.7332  100.6212 C   0  0  0  0  0  0
  -16.8200   24.9393  100.7758 C   0  0  0  0  0  0
  -16.3911   24.0123   99.7324 C   0  0  0  0  0  0
  -15.3798   23.3131   99.8151 O   0  0  0  0  0  0
  -17.2087   24.0050   98.6415 N   0  0  0  0  0  0
  -16.9301   23.1338   97.5019 C   0  0  0  0  0  0
  -17.6317   21.7943   97.6277 C   0  0  0  0  0  0
  -16.9428   20.6789   98.1400 C   0  0  0  0  0  0
  -17.5871   19.4332   98.2201 C   0  0  0  0  0  0
  -18.9272   19.3093   97.8157 C   0  0  0  0  0  0
  -19.6559   20.4295   97.3585 C   0  0  0  0  0  0
  -21.0866   20.2997   97.0052 C   0  0  0  0  0  0
  -21.7534   21.4228   96.7309 N   0  0  0  0  0  0
  -23.0557   21.3243   96.4043 C   0  0  0  0  0  0
  -23.7133   20.0772   96.3235 C   0  0  0  0  0  0
  -25.0358   19.8841   95.9925 O   0  0  0  0  0  0
  -25.9292   20.9862   96.0836 C   0  0  0  0  0  0
  -26.1823   21.3486   97.5600 C   0  0  0  0  0  0
  -27.4668   22.1573   97.8162 C   0  0  0  0  0  0
  -28.6239   21.3103   98.2151 N   0  3  0  0  0  0
  -29.6336   22.0714   98.9851 C   0  0  0  0  0  0
  -29.2342   20.5564   97.0972 C   0  0  0  0  0  0
  -22.9135   18.9593   96.6151 C   0  0  0  0  0  0
  -21.6221   19.0716   96.9881 N   0  0  0  0  0  0
  -18.9858   21.6716   97.2534 C   0  0  0  0  0  0
  -18.3286   24.8002   98.4827 N   0  0  0  0  0  0
  -20.0196   27.7151   99.8152 C   0  0  0  0  0  0
  -22.1696   31.4778  100.7055 H   0  0  0  0  0  0
  -22.3231   30.9479   99.0362 H   0  0  0  0  0  0
  -23.2133   30.1119  100.3310 H   0  0  0  0  0  0
  -22.9501   28.7621   98.3945 H   0  0  0  0  0  0
  -22.6858   26.6346   97.1970 H   0  0  0  0  0  0
  -20.7349   25.1720   97.6215 H   0  0  0  0  0  0
  -18.1970   26.4022  101.4150 H   0  0  0  0  0  0
  -16.2504   24.9912  101.6928 H   0  0  0  0  0  0
  -15.8578   22.9788   97.3684 H   0  0  0  0  0  0
  -17.2593   23.6205   96.5836 H   0  0  0  0  0  0
  -15.9134   20.7739   98.4554 H   0  0  0  0  0  0
  -17.0572   18.5682   98.5930 H   0  0  0  0  0  0
  -19.3951   18.3392   97.8796 H   0  0  0  0  0  0
  -23.5597   22.2595   96.2152 H   0  0  0  0  0  0
  -26.8509   20.6681   95.6008 H   0  0  0  0  0  0
  -25.5890   21.8451   95.5045 H   0  0  0  0  0  0
  -25.3331   21.9344   97.9105 H   0  0  0  0  0  0
  -26.1737   20.4517   98.1768 H   0  0  0  0  0  0
  -27.7181   22.7940   96.9653 H   0  0  0  0  0  0
  -27.2473   22.8367   98.6416 H   0  0  0  0  0  0
  -30.0709   22.8671   98.3799 H   0  0  0  0  0  0
  -29.1876   22.5226   99.8730 H   0  0  0  0  0  0
  -30.4380   21.4174   99.3226 H   0  0  0  0  0  0
  -29.5284   21.2196   96.2829 H   0  0  0  0  0  0
  -28.5433   19.8076   96.7105 H   0  0  0  0  0  0
  -30.1198   20.0146   97.4309 H   0  0  0  0  0  0
  -23.3258   17.9623   96.5982 H   0  0  0  0  0  0
  -19.5060   22.5470   96.8927 H   0  0  0  0  0  0
  -19.2849   28.0420  100.5335 H   0  0  0  0  0  0
  -28.2555   20.6034   98.8481 H   0  0  0  0  0  0
  1  2  1  0  0  0
  1 36  1  0  0  0
  1 37  1  0  0  0
  1 38  1  0  0  0
  2  3  1  0  0  0
  3 35  1  0  0  0
  3  4  2  0  0  0
  4  5  1  0  0  0
  4 39  1  0  0  0
  5  6  2  0  0  0
  5 40  1  0  0  0
  6  7  1  0  0  0
  6 41  1  0  0  0
  7  8  1  0  0  0
  7 35  2  0  0  0
  8 34  2  0  0  0
  8  9  1  0  0  0
  9 10  2  0  0  0
  9 42  1  0  0  0
 10 11  1  0  0  0
 10 43  1  0  0  0
 11 12  2  0  0  0
 11 13  1  0  0  0
 13 14  1  0  0  0
 13 34  1  0  0  0
 14 15  1  0  0  0
 14 44  1  0  0  0
 14 45  1  0  0  0
 15 33  1  0  0  0
 15 16  2  0  0  0
 16 17  1  0  0  0
 16 46  1  0  0  0
 17 18  2  0  0  0
 17 47  1  0  0  0
 18 19  1  0  0  0
 18 48  1  0  0  0
 19 20  1  0  0  0
 19 33  2  0  0  0
 20 32  1  0  0  0
 20 21  2  0  0  0
 21 22  1  0  0  0
 22 23  2  0  0  0
 22 49  1  0  0  0
 23 24  1  0  0  0
 23 31  1  0  0  0
 24 25  1  0  0  0
 25 26  1  0  0  0
 25 50  1  0  0  0
 25 51  1  0  0  0
 26 27  1  0  0  0
 26 52  1  0  0  0
 26 53  1  0  0  0
 27 28  1  0  0  0
 27 54  1  0  0  0
 27 55  1  0  0  0
 28 29  1  0  0  0
 28 30  1  0  0  0
 28 65  1  0  0  0
 29 56  1  0  0  0
 29 57  1  0  0  0
 29 58  1  0  0  0
 30 59  1  0  0  0
 30 60  1  0  0  0
 30 61  1  0  0  0
 31 32  2  0  0  0
 31 62  1  0  0  0
 33 63  1  0  0  0
 35 64  1  0  0  0
M  CHG  1  28   1
M  END
> <i_epik_Tot_Q>
1

> <i_epik_Tot_abs_Q>
1

> <i_f3d_flags>
0

> <i_i_glide_confnum>
156

> <i_i_glide_lignum>
14

> <i_i_glide_posenum>
143

> <i_i_glide_rotatable_bonds>
10

> <i_lp_mmshare_version>
65135

> <i_m_Source_File_Index>
12

> <i_m_source_file_index>
12

> <b_lp_Chiralities_Consistent>
1

> <r_canvas_pIC50s>
8.24

> <r_epik_Charging_Adjusted_Penalty>
0.00923182

> <r_epik_Ionization_Penalty>
0.0046

> <r_epik_Ionization_Penalty_Charging>
0.0046

> <r_epik_Ionization_Penalty_Neutral>
0

> <r_epik_State_Penalty>
0.0046

> <r_i_docking_score>
-10.8236

> <r_i_glide_ecoul>
-10.5742

> <r_i_glide_eff_state_penalty>
0.0046

> <r_i_glide_einternal>
5.13773

> <r_i_glide_emodel>
-121.512

> <r_i_glide_energy>
-74.751

> <r_i_glide_erotb>
0.724403

> <r_i_glide_esite>
-0.0258572

> <r_i_glide_evdw>
-64.1768

> <r_i_glide_gscore>
-10.8282

> <r_i_glide_hbond>
-0.325198

> <r_i_glide_ligand_efficiency>
-0.309245

> <r_i_glide_ligand_efficiency_ln>
-2.37601

> <r_i_glide_ligand_efficiency_sa>
-1.01156

> <r_i_glide_lipo>
-4.71942

> <r_i_glide_metal>
-0

> <r_i_glide_rewards>
-1.68712

> <r_lp_Energy>
85.4582

> <r_lp_tautomer_probability>
1

> <s_canvas_SMILES>
COc1cccc(-c2ccc(=O)n(Cc3cccc(-c4ncc(OCCC[NH+](C)C)cn4)c3)n2)c1

> <s_canvas_chembl\_ids>
CHEMBL3717

> <s_canvas_dirnames>
test_set_fep+

> <s_canvas_pdb\_ids>
4R1Y

> <s_canvas_protein\_names>
cmet

> <s_canvas_uniprot\_ids>
P08581

> <s_epik_cmdline>
J2VwaWtfcHl0aG9uJywgJy1waCcsICc3LjAnLCAnLXRuJywgJzgnLCAnLW1hJywgJzUwMCcsICctaW1hZScsICc8aW5maWxlLm1hZT4nLCAnLW9tYWUnLCAnPG91dGZpbGUubWFlPic=

> <s_epik_input>
W0NIM11PYzFbY0hdW2NIXVtjSF1jKFtjSF0xKS1jMltjSF1bY0hdYyg9TyluKG4yKVtDSDJdYzNbY0hdW2NIXVtjSF1jKFtjSF0zKS1jNG5bY0hdYyhbY0hdbjQpT1tDSDJdW0NIMl1bQ0gyXU4oW0NIM10pW0NIM10=

> <s_i_glide_gridfile>
cmet-001-gridgen

> <s_lp_Force_Field>
S-OPLS

> <s_lp_Variant>
lig_cmet_CHEMBL3402759_5-1

> <s_m_Source_File>
ligprep_cmet-out.maegz

> <s_m_Source_Path>
C:\Users\yujie\Desktop\FEP\ligprep_cmet

> <s_m_entry_id>
14230

> <s_m_entry_name>
label.12

> <s_m_job_name>
ligprep_cmet

> <s_m_source_file>
ligprep_cmet.maegz

$$$$
