lig_cmet_CHEMBL3402754_40
                    3D
 Schrodinger Suite 2024-1.
 45 48  0  0  1  0            999 V2000
  -19.4616   25.8080   98.7797 C   0  0  0  0  0  0
  -18.7361   26.0693   99.9663 C   0  0  0  0  0  0
  -17.6260   25.2757  100.3217 C   0  0  0  0  0  0
  -17.2303   24.2051   99.4969 C   0  0  0  0  0  0
  -17.9302   23.9419   98.3006 C   0  0  0  0  0  0
  -17.4956   22.8177   97.3733 C   0  0  0  0  0  0
  -18.3834   21.6376   97.3419 N   0  0  0  0  0  0
  -19.7230   21.8809   97.0273 N   0  0  0  0  0  0
  -20.5874   20.9151   96.9447 C   0  0  0  0  0  0
  -20.0995   19.5435   97.0220 C   0  0  0  0  0  0
  -18.8164   19.3214   97.3782 C   0  0  0  0  0  0
  -17.8901   20.4085   97.6599 C   0  0  0  0  0  0
  -16.7728   20.2244   98.1333 O   0  0  0  0  0  0
  -22.0370   21.2472   96.8397 C   0  0  0  0  0  0
  -22.9893   20.2094   96.6940 C   0  0  0  0  0  0
  -24.3626   20.5110   96.6885 C   0  0  0  0  0  0
  -25.2683   19.5169   96.5196 F   0  0  0  0  0  0
  -24.7939   21.8381   96.8574 C   0  0  0  0  0  0
  -23.8525   22.8724   97.0107 C   0  0  0  0  0  0
  -24.2818   24.1446   97.1798 F   0  0  0  0  0  0
  -22.4728   22.5873   96.9842 C   0  0  0  0  0  0
  -19.0245   24.7555   97.9441 C   0  0  0  0  0  0
  -19.0561   26.8652  100.6234 H   0  0  0  0  0  0
  -17.0954   25.4802  101.2395 H   0  0  0  0  0  0
  -16.3888   23.5941   99.7871 H   0  0  0  0  0  0
  -17.4283   23.2251   96.3692 H   0  0  0  0  0  0
  -16.4641   22.5606   97.6191 H   0  0  0  0  0  0
  -20.7334   18.7006   96.8070 H   0  0  0  0  0  0
  -18.4371   18.3165   97.4304 H   0  0  0  0  0  0
  -22.7173   19.1720   96.5997 H   0  0  0  0  0  0
  -25.8483   22.0651   96.8748 H   0  0  0  0  0  0
  -21.7776   23.4048   97.1152 H   0  0  0  0  0  0
  -19.5512   24.5541   97.0236 H   0  0  0  0  0  0
  -22.2003   28.1783   99.0216 C   0  0  0  0  0  0
  -20.9926   27.6233   99.1916 N   0  0  0  0  0  0
  -20.6859   26.5718   98.4399 C   0  0  0  0  0  0
  -21.4156   26.1236   97.4170 N   0  0  0  0  0  0
  -22.5985   26.7111   97.2010 C   0  0  0  0  0  0
  -22.4647   28.9892   99.6845 H   0  0  0  0  0  0
  -23.1884   26.3264   96.3820 H   0  0  0  0  0  0
  -23.0431   27.7891   97.9710 C   0  0  0  0  0  0
  -24.3935   28.4332   97.7468 C   0  0  0  0  0  0
  -24.7233   28.3046   96.7162 H   0  0  0  0  0  0
  -25.1324   27.9726   98.4049 H   0  0  0  0  0  0
  -24.3524   29.4997   97.9674 H   0  0  0  0  0  0
  1 22  1  0  0  0
  1  2  2  0  0  0
  1 36  1  0  0  0
  2  3  1  0  0  0
  2 23  1  0  0  0
  3  4  2  0  0  0
  3 24  1  0  0  0
  4  5  1  0  0  0
  4 25  1  0  0  0
  5  6  1  0  0  0
  5 22  2  0  0  0
  6  7  1  0  0  0
  6 26  1  0  0  0
  6 27  1  0  0  0
  7 12  1  0  0  0
  7  8  1  0  0  0
  8  9  2  0  0  0
  9 10  1  0  0  0
  9 14  1  0  0  0
 10 11  2  0  0  0
 10 28  1  0  0  0
 11 12  1  0  0  0
 11 29  1  0  0  0
 12 13  2  0  0  0
 14 21  1  0  0  0
 14 15  2  0  0  0
 15 16  1  0  0  0
 15 30  1  0  0  0
 16 17  1  0  0  0
 16 18  2  0  0  0
 18 19  1  0  0  0
 18 31  1  0  0  0
 19 20  1  0  0  0
 19 21  2  0  0  0
 21 32  1  0  0  0
 22 33  1  0  0  0
 34 35  1  0  0  0
 34 39  1  0  0  0
 34 41  2  0  0  0
 35 36  2  0  0  0
 36 37  1  0  0  0
 37 38  2  0  0  0
 38 40  1  0  0  0
 38 41  1  0  0  0
 41 42  1  0  0  0
 42 43  1  0  0  0
 42 44  1  0  0  0
 42 45  1  0  0  0
M  END
> <Source File Index>
1

> <Ionization Penalty>
0

> <Source File Index>
1

> <State Penalty>
0

> <Tot Q>
0

> <entry id>
11489

> <flags>
0

> <subgroup collapsed>
0

> <tautomer probability>
1

> <docking score>
-8.69906

> <glide emodel>
-41.6261

> <glide gscore>
-8.69906

> <Source File>
lig_cmet_CHEMBL3402747_3400.sdf

> <Source Path>
C:\Users\yujie\Desktop\FEPs

> <entry id>
11495

> <Source File>
glide-dock_SP_11_pv.maegz

> <Source Path>
C:\Users\yujie\Documents\Schrodinger\glide-dock_SP_11

> <job name>
glide-dock_SP_11

> <subgroup title>
glide-dock_SP_11_pv

> <subgroupid>
glide-dock_SP_11_pv

$$$$
