lig_cmet_CHEMBL3402756_2.7
                    3D
 Schrodinger Suite 2020-3.
 60 63  0  0  1  0            999 V2000
  -29.5136   20.7105   93.4481 C   0  0  0  0  0  0
  -28.5054   19.6755   93.6784 N   0  0  0  0  0  0
  -28.3227   18.8992   92.4548 C   0  0  0  0  0  0
  -27.2173   20.2349   94.0979 C   0  0  0  0  0  0
  -27.2609   20.8777   95.4982 C   0  0  0  0  0  0
  -25.8700   21.3008   95.9895 C   0  0  0  0  0  0
  -25.0620   20.1399   96.1542 O   0  0  0  0  0  0
  -23.7175   20.2929   96.4193 C   0  0  0  0  0  0
  -22.9468   19.1471   96.6144 C   0  0  0  0  0  0
  -21.6188   19.1896   96.8952 N   0  0  0  0  0  0
  -21.0416   20.4227   96.9674 C   0  0  0  0  0  0
  -19.5919   20.5025   97.3519 C   0  0  0  0  0  0
  -18.8976   19.3739   97.8149 C   0  0  0  0  0  0
  -17.5766   19.4596   98.2493 C   0  0  0  0  0  0
  -16.9097   20.6817   98.2131 C   0  0  0  0  0  0
  -17.5582   21.8147   97.7193 C   0  0  0  0  0  0
  -16.8239   23.1468   97.6226 C   0  0  0  0  0  0
  -17.1922   24.0847   98.6950 N   0  0  0  0  0  0
  -18.3333   24.8587   98.4686 N   0  0  0  0  0  0
  -18.7791   25.7092   99.3361 C   0  0  0  0  0  0
  -19.9702   26.5532   99.0761 C   0  0  0  0  0  0
  -20.2355   27.7179   99.8147 C   0  0  0  0  0  0
  -21.3362   28.5202   99.5167 C   0  0  0  0  0  0
  -21.5530   29.6561  100.2166 F   0  0  0  0  0  0
  -22.2066   28.1597   98.4926 C   0  0  0  0  0  0
  -21.9733   26.9984   97.7608 C   0  0  0  0  0  0
  -22.8131   26.6476   96.7603 F   0  0  0  0  0  0
  -20.8676   26.2025   98.0509 C   0  0  0  0  0  0
  -18.0311   25.8116  100.5791 C   0  0  0  0  0  0
  -16.9358   25.0506  100.8126 C   0  0  0  0  0  0
  -16.4140   24.1096   99.8336 C   0  0  0  0  0  0
  -15.3812   23.4585  100.0198 O   0  0  0  0  0  0
  -18.8852   21.7160   97.2930 C   0  0  0  0  0  0
  -21.7047   21.5960   96.7666 N   0  0  0  0  0  0
  -23.0344   21.5169   96.5082 C   0  0  0  0  0  0
  -29.7525   21.2421   94.3692 H   0  0  0  0  0  0
  -30.4462   20.2705   93.0913 H   0  0  0  0  0  0
  -29.1796   21.4411   92.7095 H   0  0  0  0  0  0
  -27.5973   18.0986   92.6097 H   0  0  0  0  0  0
  -29.2593   18.4294   92.1498 H   0  0  0  0  0  0
  -27.9695   19.5200   91.6283 H   0  0  0  0  0  0
  -26.4517   19.4556   94.0974 H   0  0  0  0  0  0
  -26.8672   20.9711   93.3705 H   0  0  0  0  0  0
  -27.8666   21.7832   95.4638 H   0  0  0  0  0  0
  -27.7332   20.2058   96.2158 H   0  0  0  0  0  0
  -25.4336   21.9915   95.2653 H   0  0  0  0  0  0
  -25.9527   21.8282   96.9421 H   0  0  0  0  0  0
  -23.4037   18.1701   96.5589 H   0  0  0  0  0  0
  -19.3832   18.4111   97.8581 H   0  0  0  0  0  0
  -17.0770   18.5750   98.6170 H   0  0  0  0  0  0
  -15.8874   20.7437   98.5587 H   0  0  0  0  0  0
  -15.7451   22.9760   97.5766 H   0  0  0  0  0  0
  -17.0547   23.5989   96.6555 H   0  0  0  0  0  0
  -19.5866   28.0439  100.6124 H   0  0  0  0  0  0
  -23.0612   28.7781   98.2679 H   0  0  0  0  0  0
  -20.7126   25.3108   97.4616 H   0  0  0  0  0  0
  -18.3364   26.4896  101.3637 H   0  0  0  0  0  0
  -16.4114   25.1440  101.7528 H   0  0  0  0  0  0
  -19.3703   22.6092   96.9253 H   0  0  0  0  0  0
  -23.5302   22.4644   96.3606 H   0  0  0  0  0  0
  1  2  1  0  0  0
  1 36  1  0  0  0
  1 37  1  0  0  0
  1 38  1  0  0  0
  2  3  1  0  0  0
  2  4  1  0  0  0
  3 39  1  0  0  0
  3 40  1  0  0  0
  3 41  1  0  0  0
  4  5  1  0  0  0
  4 42  1  0  0  0
  4 43  1  0  0  0
  5  6  1  0  0  0
  5 44  1  0  0  0
  5 45  1  0  0  0
  6  7  1  0  0  0
  6 46  1  0  0  0
  6 47  1  0  0  0
  7  8  1  0  0  0
  8 35  1  0  0  0
  8  9  2  0  0  0
  9 10  1  0  0  0
  9 48  1  0  0  0
 10 11  2  0  0  0
 11 12  1  0  0  0
 11 34  1  0  0  0
 12 33  1  0  0  0
 12 13  2  0  0  0
 13 14  1  0  0  0
 13 49  1  0  0  0
 14 15  2  0  0  0
 14 50  1  0  0  0
 15 16  1  0  0  0
 15 51  1  0  0  0
 16 17  1  0  0  0
 16 33  2  0  0  0
 17 18  1  0  0  0
 17 52  1  0  0  0
 17 53  1  0  0  0
 18 31  1  0  0  0
 18 19  1  0  0  0
 19 20  2  0  0  0
 20 21  1  0  0  0
 20 29  1  0  0  0
 21 28  1  0  0  0
 21 22  2  0  0  0
 22 23  1  0  0  0
 22 54  1  0  0  0
 23 24  1  0  0  0
 23 25  2  0  0  0
 25 26  1  0  0  0
 25 55  1  0  0  0
 26 27  1  0  0  0
 26 28  2  0  0  0
 28 56  1  0  0  0
 29 30  2  0  0  0
 29 57  1  0  0  0
 30 31  1  0  0  0
 30 58  1  0  0  0
 31 32  2  0  0  0
 33 59  1  0  0  0
 34 35  2  0  0  0
 35 60  1  0  0  0
M  END
> <s_m_source_file>
/home/user-home/yujie/0_PBCNetv2/data/FEP/cmet/inp_ligprep.csv

> <i_m_source_file_index>
9

> <i_lp_mmshare_version>
51139

> <i_f3d_flags>
0

> <s_epik_input>
W0NIM11OKFtDSDNdKVtDSDJdW0NIMl1bQ0gyXU9jMVtjSF1uYyhuW2NIXTEpLWMyW2NIXVtjSF1bY0hdYyhbY0hdMilbQ0gyXW4zbmMoW2NIXVtjSF1jMz1PKS1jNFtjSF1jKEYpW2NIXWMoRilbY0hdNA==

> <s_epik_cmdline>
J2VwaWtfcHl0aG9uJywgJy1waHQnLCAnMi4wJywgJy1waCcsICc3LjQnLCAnLXRuJywgJzgnLCAnLW1hJywgJzIwMCcsICctaW1hZScsICc8aW5maWxlLm1hZT4nLCAnLW9tYWUnLCAnPG91dGZpbGUubWFlPic=

> <r_lp_tautomer_probability>
1

> <r_epik_Ionization_Penalty>
  2.3399

> <r_epik_Ionization_Penalty_Charging>
  0.0000

> <r_epik_Ionization_Penalty_Neutral>
  2.3399

> <r_epik_State_Penalty>
  2.4935

> <r_epik_Charging_Adjusted_Penalty>
2.49347

> <i_epik_Tot_Q>
0

> <i_epik_Tot_abs_Q>
0

> <s_lp_Force_Field>
OPLS3e

> <r_lp_Energy>
72.9337

> <b_lp_Chiralities_Consistent>
1

> <s_lp_Variant>
lig_cmet_CHEMBL3402756_2.7-2

> <s_i_glide_gridfile>
cmet-001-gridgen

> <i_i_glide_lignum>
13

> <i_i_glide_rotatable_bonds>
9

> <r_i_docking_score>
-7.62340916372959

> <r_i_glide_ligand_efficiency>
-0.217811690392274

> <r_i_glide_ligand_efficiency_sa>
-0.712476481563028

> <r_i_glide_ligand_efficiency_ln>
-1.67350750388919

> <r_i_glide_gscore>
-10.1168791637296

> <r_i_glide_lipo>
-4.56693656363754

> <r_i_glide_hbond>
-0.295420088780651

> <r_i_glide_metal>
-0

> <r_i_glide_rewards>
-1.88079579306297

> <r_i_glide_evdw>
-60.795093536377

> <r_i_glide_ecoul>
-6.94716358184814

> <r_i_glide_erotb>
0.710756859928737

> <r_i_glide_esite>
-0.0026543640811086

> <r_i_glide_emodel>
-109.234081629204

> <r_i_glide_energy>
-67.7422571182251

> <r_i_glide_einternal>
1.91997587680817

> <i_i_glide_confnum>
12

> <i_i_glide_posenum>
164

> <r_i_glide_eff_state_penalty>
2.49347

$$$$
