lig_cmet_CHEMBL3402752_30000
                    3D
 Schrodinger Suite 2024-1.
 43 46  0  0  1  0            999 V2000
  -23.6337   18.0919   94.7506 C   0  0  0  0  0  0
  -23.0955   19.2074   95.6127 C   0  0  0  0  0  0
  -21.8188   19.3454   95.8769 N   0  0  0  0  0  0
  -21.5416   20.3551   96.6878 C   0  0  0  0  0  0
  -20.1249   20.6197   97.1134 C   0  0  0  0  0  0
  -19.0357   20.1247   96.3791 C   0  0  0  0  0  0
  -17.7259   20.3900   96.7764 C   0  0  0  0  0  0
  -17.4852   21.1363   97.9274 C   0  0  0  0  0  0
  -18.5534   21.6300   98.6813 C   0  0  0  0  0  0
  -18.2915   22.3977   99.9735 C   0  0  0  0  0  0
  -17.8591   23.7885   99.7573 N   0  0  0  0  0  0
  -18.8845   24.7261   99.5775 N   0  0  0  0  0  0
  -18.6476   25.9680   99.2947 C   0  0  0  0  0  0
  -19.7274   26.9705   99.0943 C   0  0  0  0  0  0
  -19.4824   28.2467   98.5539 C   0  0  0  0  0  0
  -20.5205   29.1624   98.3825 C   0  0  0  0  0  0
  -20.2711   30.3762   97.8450 F   0  0  0  0  0  0
  -21.8190   28.8273   98.7546 C   0  0  0  0  0  0
  -22.0825   27.5730   99.2957 C   0  0  0  0  0  0
  -23.3426   27.2439   99.6573 F   0  0  0  0  0  0
  -21.0475   26.6550   99.4639 C   0  0  0  0  0  0
  -17.2470   26.3392   99.1836 C   0  0  0  0  0  0
  -16.2513   25.4478   99.3901 C   0  0  0  0  0  0
  -16.5053   24.0578   99.7180 C   0  0  0  0  0  0
  -15.5922   23.2565   99.9333 O   0  0  0  0  0  0
  -19.8643   21.3712   98.2674 C   0  0  0  0  0  0
  -22.6695   21.0883   97.0669 C   0  0  0  0  0  0
  -24.1001   20.4002   96.3655 S   0  0  0  0  0  0
  -24.1715   17.3601   95.3531 H   0  0  0  0  0  0
  -22.8445   17.5507   94.2254 H   0  0  0  0  0  0
  -24.3200   18.4685   93.9937 H   0  0  0  0  0  0
  -19.1993   19.5417   95.4843 H   0  0  0  0  0  0
  -16.8967   20.0138   96.1957 H   0  0  0  0  0  0
  -16.4666   21.3308   98.2313 H   0  0  0  0  0  0
  -19.2002   22.4039  100.5783 H   0  0  0  0  0  0
  -17.5782   21.8310  100.5756 H   0  0  0  0  0  0
  -18.4976   28.5535   98.2362 H   0  0  0  0  0  0
  -22.6196   29.5388   98.6260 H   0  0  0  0  0  0
  -21.2869   25.6907   99.8895 H   0  0  0  0  0  0
  -16.9441   27.3450   98.9429 H   0  0  0  0  0  0
  -15.2207   25.7589   99.2927 H   0  0  0  0  0  0
  -20.6867   21.7416   98.8616 H   0  0  0  0  0  0
  -22.7307   21.9473   97.7175 H   0  0  0  0  0  0
  1  2  1  0  0  0
  1 29  1  0  0  0
  1 30  1  0  0  0
  1 31  1  0  0  0
  2 28  1  0  0  0
  2  3  2  0  0  0
  3  4  1  0  0  0
  4  5  1  0  0  0
  4 27  2  0  0  0
  5 26  1  0  0  0
  5  6  2  0  0  0
  6  7  1  0  0  0
  6 32  1  0  0  0
  7  8  2  0  0  0
  7 33  1  0  0  0
  8  9  1  0  0  0
  8 34  1  0  0  0
  9 10  1  0  0  0
  9 26  2  0  0  0
 10 11  1  0  0  0
 10 35  1  0  0  0
 10 36  1  0  0  0
 11 24  1  0  0  0
 11 12  1  0  0  0
 12 13  2  0  0  0
 13 14  1  0  0  0
 13 22  1  0  0  0
 14 21  1  0  0  0
 14 15  2  0  0  0
 15 16  1  0  0  0
 15 37  1  0  0  0
 16 17  1  0  0  0
 16 18  2  0  0  0
 18 19  1  0  0  0
 18 38  1  0  0  0
 19 20  1  0  0  0
 19 21  2  0  0  0
 21 39  1  0  0  0
 22 23  2  0  0  0
 22 40  1  0  0  0
 23 24  1  0  0  0
 23 41  1  0  0  0
 24 25  2  0  0  0
 26 42  1  0  0  0
 27 28  1  0  0  0
 27 43  1  0  0  0
M  END
> <Tot Q>
0

> <Source File Index>
757

> <i_f3d_flags>
0

> <subgroup collapsed>
0

> <Ionization Penalty>
0.0001

> <State Penalty>
0

> <docking score>
-6.90169

> <glide emodel>
-70.0583

> <glide gscore>
-6.90169

> <tautomer probability>
1

> <RMSD 11407>
1.86423

> <Source File>
cmetcmet_dock_SP_confgen_100_lib.maegz

> <Source Path>
C:\Users\yujie\Desktop\FEPs\cmet

> <entry id>
12252

> <subgroup title>
cmetcmet_dock_SP_confgen_100_lib

> <subgroupid>
cmetcmet_dock_SP_confgen_100_lib

$$$$
