lig_cmet_CHEMBL3402748_5300
                    3D
 Schrodinger Suite 2024-1.
 44 47  0  0  1  0            999 V2000
  -24.3483   19.0735   96.5576 C   0  0  0  0  0  0
  -23.1626   19.9734   96.6120 C   0  0  0  0  0  0
  -23.1301   21.3210   96.3725 C   0  0  0  0  0  0
  -21.8109   21.6840   96.5431 N   0  0  0  0  0  0
  -21.0990   20.6013   96.8850 C   0  0  0  0  0  0
  -19.6828   20.6271   97.2495 C   0  0  0  0  0  0
  -19.0617   19.4722   97.7703 C   0  0  0  0  0  0
  -17.7414   19.5259   98.2555 C   0  0  0  0  0  0
  -17.0313   20.7404   98.2125 C   0  0  0  0  0  0
  -17.6164   21.8844   97.6420 C   0  0  0  0  0  0
  -16.8402   23.1887   97.5950 C   0  0  0  0  0  0
  -17.1639   24.0592   98.7237 N   0  0  0  0  0  0
  -18.3161   24.8084   98.5364 N   0  0  0  0  0  0
  -18.7227   25.6486   99.4338 C   0  0  0  0  0  0
  -19.9320   26.4498   99.1345 C   0  0  0  0  0  0
  -20.0834   27.7264   99.7134 C   0  0  0  0  0  0
  -21.2190   28.5008   99.4125 C   0  0  0  0  0  0
  -21.3127   29.7683   99.8828 F   0  0  0  0  0  0
  -22.2159   27.9850   98.5629 C   0  0  0  0  0  0
  -22.0650   26.7077   97.9869 C   0  0  0  0  0  0
  -22.9973   26.2316   97.1264 F   0  0  0  0  0  0
  -20.9204   25.9365   98.2653 C   0  0  0  0  0  0
  -17.9634   25.7843  100.6661 C   0  0  0  0  0  0
  -16.8525   25.0366  100.8531 C   0  0  0  0  0  0
  -16.3661   24.1149   99.8302 C   0  0  0  0  0  0
  -15.3243   23.4631   99.9517 O   0  0  0  0  0  0
  -18.9406   21.8268   97.1651 C   0  0  0  0  0  0
  -21.8768   19.5146   96.9192 N   0  0  0  0  0  0
  -21.4607   22.6265   96.4740 H   0  0  0  0  0  0
  -24.7413   19.0138   95.5440 H   0  0  0  0  0  0
  -25.1498   19.4421   97.1980 H   0  0  0  0  0  0
  -24.0945   18.0687   96.8907 H   0  0  0  0  0  0
  -23.9087   22.0275   96.1159 H   0  0  0  0  0  0
  -19.6117   18.5439   97.8202 H   0  0  0  0  0  0
  -17.2928   18.6377   98.6763 H   0  0  0  0  0  0
  -16.0388   20.8154   98.6237 H   0  0  0  0  0  0
  -15.7706   22.9775   97.5419 H   0  0  0  0  0  0
  -17.0697   23.7067   96.6622 H   0  0  0  0  0  0
  -19.3199   28.1492  100.3440 H   0  0  0  0  0  0
  -23.0951   28.5755   98.3571 H   0  0  0  0  0  0
  -20.8212   24.9586   97.8213 H   0  0  0  0  0  0
  -18.3311   26.4292  101.4458 H   0  0  0  0  0  0
  -16.3212   25.1019  101.7896 H   0  0  0  0  0  0
  -19.3910   22.7265   96.7740 H   0  0  0  0  0  0
  1 30  1  0  0  0
  1 31  1  0  0  0
  1 32  1  0  0  0
  1  2  1  0  0  0
  2  3  2  0  0  0
  2 28  1  0  0  0
  3 33  1  0  0  0
  3  4  1  0  0  0
  4 29  1  0  0  0
  4  5  1  0  0  0
  5  6  1  0  0  0
  5 28  2  0  0  0
  6 27  1  0  0  0
  6  7  2  0  0  0
  7  8  1  0  0  0
  7 34  1  0  0  0
  8  9  2  0  0  0
  8 35  1  0  0  0
  9 10  1  0  0  0
  9 36  1  0  0  0
 10 11  1  0  0  0
 10 27  2  0  0  0
 11 12  1  0  0  0
 11 37  1  0  0  0
 11 38  1  0  0  0
 12 25  1  0  0  0
 12 13  1  0  0  0
 13 14  2  0  0  0
 14 15  1  0  0  0
 14 23  1  0  0  0
 15 22  1  0  0  0
 15 16  2  0  0  0
 16 17  1  0  0  0
 16 39  1  0  0  0
 17 18  1  0  0  0
 17 19  2  0  0  0
 19 20  1  0  0  0
 19 40  1  0  0  0
 20 21  1  0  0  0
 20 22  2  0  0  0
 22 41  1  0  0  0
 23 24  2  0  0  0
 23 42  1  0  0  0
 24 25  1  0  0  0
 24 43  1  0  0  0
 25 26  2  0  0  0
 27 44  1  0  0  0
M  END
> <Tot Q>
0

> <Source File Index>
1

> <i_f3d_flags>
0

> <subgroup collapsed>
0

> <Ionization Penalty>
0.5261

> <State Penalty>
0.73

> <docking score>
-9.38844

> <glide emodel>
-98.237

> <glide gscore>
-10.1184

> <tautomer probability>
0.5

> <Source File>
lig_cmet_CHEMBL3402748_5300.maegz

> <Source Path>
C:\Users\yujie\Desktop\FEPs\cmet\111

> <entry id>
3394

> <subgroup title>
cmetcmet_dock_SP_confgen_100_lib

> <subgroupid>
cmetcmet_dock_SP_confgen_100_lib3

$$$$
