Jnk1_18626-1
                    3D
 Schrodinger Suite 2024-1.
 38 39  0  0  1  0            999 V2000
   24.0274   97.5895   29.1331 C   0  0  0  0  0  0
   25.2836   97.2049   29.9289 C   0  0  0  0  0  0
   24.9625   96.3618   31.0380 O   0  0  0  0  0  0
   24.6689   95.0164   30.8570 C   0  0  0  0  0  0
   24.7591   94.5029   29.5980 N   0  0  0  0  0  0
   24.4647   93.2006   29.3887 C   0  0  0  0  0  0
   24.5493   92.8322   28.0437 N   0  0  0  0  0  0
   24.2692   91.6561   27.4476 C   0  0  0  0  0  0
   23.9004   90.6335   28.0215 O   0  0  0  0  0  0
   24.3957   91.6500   25.9239 C   0  0  0  0  0  0
   25.8481   91.6565   25.4611 C   0  0  0  0  0  0
   26.5527   90.4553   25.3341 C   0  0  0  0  0  0
   27.8833   90.4590   24.9171 C   0  0  0  0  0  0
   28.5158   91.6647   24.6147 C   0  0  0  0  0  0
   27.8173   92.8666   24.7296 C   0  0  0  0  0  0
   28.5915   94.3558   24.3293 Cl  0  0  0  0  0  0
   26.4903   92.8640   25.1616 C   0  0  0  0  0  0
   24.0957   92.3508   30.4364 C   0  0  0  0  0  0
   23.9974   92.8696   31.7246 C   0  0  0  0  0  0
   23.6053   91.9851   32.7294 N   0  0  0  0  0  0
   24.2758   94.2319   31.9541 C   0  0  0  0  0  0
   24.1585   94.8429   33.2799 C   0  0  0  0  0  0
   24.0644   95.3292   34.3268 N   0  0  0  0  0  0
   24.2702   98.2997   28.3425 H   0  0  0  0  0  0
   23.2842   98.0547   29.7810 H   0  0  0  0  0  0
   23.5593   96.7243   28.6646 H   0  0  0  0  0  0
   26.0412   96.7530   29.2857 H   0  0  0  0  0  0
   25.7388   98.1097   30.3329 H   0  0  0  0  0  0
   24.8527   93.5841   27.4465 H   0  0  0  0  0  0
   23.8831   90.7729   25.5259 H   0  0  0  0  0  0
   23.8698   92.5198   25.5295 H   0  0  0  0  0  0
   26.0614   89.5129   25.5294 H   0  0  0  0  0  0
   28.4176   89.5260   24.8137 H   0  0  0  0  0  0
   29.5429   91.6653   24.2805 H   0  0  0  0  0  0
   25.9599   93.8011   25.2464 H   0  0  0  0  0  0
   23.8712   91.3090   30.2746 H   0  0  0  0  0  0
   23.4964   92.3146   33.6808 H   0  0  0  0  0  0
   23.4682   91.0074   32.5070 H   0  0  0  0  0  0
  1  2  1  0  0  0
  1 24  1  0  0  0
  1 25  1  0  0  0
  1 26  1  0  0  0
  2  3  1  0  0  0
  2 27  1  0  0  0
  2 28  1  0  0  0
  3  4  1  0  0  0
  4 21  1  0  0  0
  4  5  2  0  0  0
  5  6  1  0  0  0
  6  7  1  0  0  0
  6 18  2  0  0  0
  7  8  1  0  0  0
  7 29  1  0  0  0
  8  9  2  0  0  0
  8 10  1  0  0  0
 10 11  1  0  0  0
 10 30  1  0  0  0
 10 31  1  0  0  0
 11 17  1  0  0  0
 11 12  2  0  0  0
 12 13  1  0  0  0
 12 32  1  0  0  0
 13 14  2  0  0  0
 13 33  1  0  0  0
 14 15  1  0  0  0
 14 34  1  0  0  0
 15 16  1  0  0  0
 15 17  2  0  0  0
 17 35  1  0  0  0
 18 19  1  0  0  0
 18 36  1  0  0  0
 19 20  1  0  0  0
 19 21  2  0  0  0
 20 37  1  0  0  0
 20 38  1  0  0  0
 21 22  1  0  0  0
 22 23  3  0  0  0
M  END
> <Source File Index>
1

> <Ionization Penalty>
0

> <Source File Index>
17

> <State Penalty>
0

> <Tot Q>
0

> <entry id>
16242

> <i_f3d_flags>
0

> <subgroup collapsed>
0

> <tautomer probability>
1

> <docking score>
-7.27856

> <glide emodel>
-65.3629

> <glide gscore>
-7.27856

> <Source File>
Jnk1_18626-1.sdf

> <Source Path>
C:\Users\yujie\AppData\Roaming\MobaXterm\slash\tmp\dragdrop

> <entry id>
20079

> <Source File>
Jnk1Jnk1_dock_SP_confgen_100_lib.maegz

> <Source Path>
C:\Users\yujie\Desktop\FEPs

> <subgroup title>
Jnk1Jnk1_dock_SP_confgen_100_lib

> <subgroupid>
Jnk1Jnk1_dock_SP_confgen_100_lib

$$$$
