Jnk1_17124-1
                    3D
 Schrodinger Suite 2024-1.
 46 47  0  0  1  0            999 V2000
   23.8920   97.2754   28.6520 C   0  0  0  0  0  0
   25.1476   97.0940   29.5186 C   0  0  0  0  0  0
   24.8637   96.3637   30.7145 O   0  0  0  0  0  0
   24.6707   94.9957   30.6504 C   0  0  0  0  0  0
   24.7769   94.4008   29.4398 N   0  0  0  0  0  0
   24.5725   93.0772   29.3130 C   0  0  0  0  0  0
   24.6688   92.5483   28.0073 N   0  0  0  0  0  0
   24.2697   91.3727   27.4984 C   0  0  0  0  0  0
   23.7601   90.4547   28.1401 O   0  0  0  0  0  0
   24.4285   91.2369   25.9858 C   0  0  0  0  0  0
   25.8481   91.5349   25.5169 C   0  0  0  0  0  0
   26.7138   90.4553   25.2497 C   0  0  0  0  0  0
   28.0310   90.6746   24.7823 C   0  0  0  0  0  0
   28.9213   89.6621   24.4931 O   0  0  0  0  0  0
   28.4447   88.3237   24.5214 C   0  0  0  0  0  0
   28.4672   92.0027   24.5954 C   0  0  0  0  0  0
   30.2329   92.3534   23.9719 Br  0  0  0  0  0  0
   27.6063   93.0853   24.8547 C   0  0  0  0  0  0
   26.2864   92.8661   25.3164 C   0  0  0  0  0  0
   25.3969   93.8860   25.5903 O   0  0  0  0  0  0
   25.8692   95.2251   25.5533 C   0  0  0  0  0  0
   24.2876   92.2726   30.4373 C   0  0  0  0  0  0
   24.1732   92.8745   31.6999 C   0  0  0  0  0  0
   23.8654   92.0525   32.7808 N   0  0  0  0  0  0
   24.3600   94.2714   31.8227 C   0  0  0  0  0  0
   24.2391   94.9668   33.1008 C   0  0  0  0  0  0
   24.1434   95.5205   34.1140 N   0  0  0  0  0  0
   24.0779   97.9805   27.8420 H   0  0  0  0  0  0
   23.0677   97.6557   29.2523 H   0  0  0  0  0  0
   23.5586   96.3422   28.2001 H   0  0  0  0  0  0
   25.9641   96.6429   28.9510 H   0  0  0  0  0  0
   25.5082   98.0759   29.8253 H   0  0  0  0  0  0
   25.0209   93.2012   27.3189 H   0  0  0  0  0  0
   24.1282   90.2393   25.6645 H   0  0  0  0  0  0
   23.7337   91.9354   25.5295 H   0  0  0  0  0  0
   26.3377   89.4548   25.3985 H   0  0  0  0  0  0
   29.2383   87.6525   24.1915 H   0  0  0  0  0  0
   28.1594   88.0218   25.5294 H   0  0  0  0  0  0
   27.5950   88.1861   23.8511 H   0  0  0  0  0  0
   27.9871   94.0807   24.6881 H   0  0  0  0  0  0
   25.0733   95.8937   25.8833 H   0  0  0  0  0  0
   26.7179   95.3691   26.2245 H   0  0  0  0  0  0
   26.1495   95.5204   24.5419 H   0  0  0  0  0  0
   24.1499   91.2060   30.3577 H   0  0  0  0  0  0
   23.6531   92.4278   33.6964 H   0  0  0  0  0  0
   23.6996   91.0614   32.6572 H   0  0  0  0  0  0
  1  2  1  0  0  0
  1 28  1  0  0  0
  1 29  1  0  0  0
  1 30  1  0  0  0
  2  3  1  0  0  0
  2 31  1  0  0  0
  2 32  1  0  0  0
  3  4  1  0  0  0
  4 25  1  0  0  0
  4  5  2  0  0  0
  5  6  1  0  0  0
  6  7  1  0  0  0
  6 22  2  0  0  0
  7  8  1  0  0  0
  7 33  1  0  0  0
  8  9  2  0  0  0
  8 10  1  0  0  0
 10 11  1  0  0  0
 10 34  1  0  0  0
 10 35  1  0  0  0
 11 19  1  0  0  0
 11 12  2  0  0  0
 12 13  1  0  0  0
 12 36  1  0  0  0
 13 14  1  0  0  0
 13 16  2  0  0  0
 14 15  1  0  0  0
 15 37  1  0  0  0
 15 38  1  0  0  0
 15 39  1  0  0  0
 16 17  1  0  0  0
 16 18  1  0  0  0
 18 19  2  0  0  0
 18 40  1  0  0  0
 19 20  1  0  0  0
 20 21  1  0  0  0
 21 41  1  0  0  0
 21 42  1  0  0  0
 21 43  1  0  0  0
 22 23  1  0  0  0
 22 44  1  0  0  0
 23 24  1  0  0  0
 23 25  2  0  0  0
 24 45  1  0  0  0
 24 46  1  0  0  0
 25 26  1  0  0  0
 26 27  3  0  0  0
M  END
> <Tot Q>
0

> <Source File Index>
1

> <i_f3d_flags>
0

> <subgroup collapsed>
0

> <Ionization Penalty>
0

> <State Penalty>
0

> <docking score>
-7.33152

> <glide emodel>
-71.3638

> <glide gscore>
-7.33152

> <tautomer probability>
1

> <Source File>
Jnk1_17124-1.sdf

> <Source Path>
C:\Users\yujie\AppData\Roaming\MobaXterm\slash\tmp\dragdrop

> <entry id>
20076

> <job name>
glide-dock_SP_FEP_Jnk1

> <subgroup title>
glide-dock_SP_FEP_Jnk1_pv

> <subgroupid>
glide-dock_SP_FEP_Jnk1_pv

$$$$
