Jnk1_18652-1
                    3D
 Schrodinger Suite 2024-1.
 55 56  0  0  1  0            999 V2000
   27.4816   88.6423   24.7295 C   0  0  0  0  0  0
   26.5727   89.6651   25.1296 O   0  0  0  0  0  0
   26.9236   90.9934   24.9799 C   0  0  0  0  0  0
   28.1596   91.4094   24.4647 C   0  0  0  0  0  0
   28.4461   92.7636   24.2735 C   0  0  0  0  0  0
   30.0348   93.2266   23.5713 S   0  0  0  0  0  0
   29.5916   93.8091   21.8404 C   0  0  0  0  0  0
   30.5526   94.3692   24.3294 O   0  0  0  0  0  0
   30.8404   92.0062   23.4416 O   0  0  0  0  0  0
   27.5035   93.7401   24.6181 C   0  0  0  0  0  0
   27.8250   95.0647   24.3925 O   0  0  0  0  0  0
   26.9996   96.0916   24.9303 C   0  0  0  0  0  0
   26.2700   93.3259   25.1420 C   0  0  0  0  0  0
   25.9756   91.9690   25.3251 C   0  0  0  0  0  0
   24.5950   91.5809   25.8590 C   0  0  0  0  0  0
   24.5154   91.5240   27.3873 C   0  0  0  0  0  0
   24.2695   90.4549   27.9380 O   0  0  0  0  0  0
   24.6687   92.7068   28.0151 N   0  0  0  0  0  0
   24.5513   93.0434   29.3667 C   0  0  0  0  0  0
   24.2080   92.1655   30.4022 C   0  0  0  0  0  0
   24.0806   92.6661   31.6994 C   0  0  0  0  0  0
   23.7088   91.7638   32.7022 N   0  0  0  0  0  0
   24.3140   94.0371   31.9418 C   0  0  0  0  0  0
   24.1865   94.6354   33.2717 C   0  0  0  0  0  0
   24.0872   95.1153   34.3206 N   0  0  0  0  0  0
   24.6688   94.8512   30.8526 C   0  0  0  0  0  0
   24.8775   96.2114   31.0447 O   0  0  0  0  0  0
   25.1716   97.0852   29.9491 C   0  0  0  0  0  0
   25.7862   98.3562   30.5515 C   0  0  0  0  0  0
   23.8940   97.4017   29.1505 C   0  0  0  0  0  0
   24.7811   94.3551   29.5895 N   0  0  0  0  0  0
   27.0490   87.6627   24.9299 H   0  0  0  0  0  0
   27.6943   88.6943   23.6609 H   0  0  0  0  0  0
   28.4172   88.7006   25.2866 H   0  0  0  0  0  0
   28.9043   90.6806   24.1838 H   0  0  0  0  0  0
   30.5083   94.1068   21.3336 H   0  0  0  0  0  0
   29.1121   92.9904   21.3079 H   0  0  0  0  0  0
   28.9139   94.6574   21.9241 H   0  0  0  0  0  0
   27.4678   97.0573   24.7454 H   0  0  0  0  0  0
   26.0179   96.1044   24.4551 H   0  0  0  0  0  0
   26.8792   95.9865   26.0095 H   0  0  0  0  0  0
   25.5170   94.0556   25.3935 H   0  0  0  0  0  0
   24.2658   90.6344   25.4262 H   0  0  0  0  0  0
   23.8665   92.3194   25.5295 H   0  0  0  0  0  0
   24.8965   93.4987   27.4362 H   0  0  0  0  0  0
   24.0217   91.1193   30.2204 H   0  0  0  0  0  0
   23.5874   92.0902   33.6535 H   0  0  0  0  0  0
   23.5906   90.7813   32.4786 H   0  0  0  0  0  0
   25.9214   96.6363   29.2929 H   0  0  0  0  0  0
   26.0682   99.0668   29.7744 H   0  0  0  0  0  0
   26.6801   98.1208   31.1263 H   0  0  0  0  0  0
   25.0869   98.8552   31.2222 H   0  0  0  0  0  0
   24.1114   98.0706   28.3176 H   0  0  0  0  0  0
   23.4370   96.5061   28.7313 H   0  0  0  0  0  0
   23.1465   97.8861   29.7782 H   0  0  0  0  0  0
  1  2  1  0  0  0
  1 32  1  0  0  0
  1 33  1  0  0  0
  1 34  1  0  0  0
  2  3  1  0  0  0
  3 14  1  0  0  0
  3  4  2  0  0  0
  4  5  1  0  0  0
  4 35  1  0  0  0
  5  6  1  0  0  0
  5 10  2  0  0  0
  6  7  1  0  0  0
  6  8  2  0  0  0
  6  9  2  0  0  0
  7 36  1  0  0  0
  7 37  1  0  0  0
  7 38  1  0  0  0
 10 11  1  0  0  0
 10 13  1  0  0  0
 11 12  1  0  0  0
 12 39  1  0  0  0
 12 40  1  0  0  0
 12 41  1  0  0  0
 13 14  2  0  0  0
 13 42  1  0  0  0
 14 15  1  0  0  0
 15 16  1  0  0  0
 15 43  1  0  0  0
 15 44  1  0  0  0
 16 17  2  0  0  0
 16 18  1  0  0  0
 18 19  1  0  0  0
 18 45  1  0  0  0
 19 31  1  0  0  0
 19 20  2  0  0  0
 20 21  1  0  0  0
 20 46  1  0  0  0
 21 22  1  0  0  0
 21 23  2  0  0  0
 22 47  1  0  0  0
 22 48  1  0  0  0
 23 24  1  0  0  0
 23 26  1  0  0  0
 24 25  3  0  0  0
 26 27  1  0  0  0
 26 31  2  0  0  0
 27 28  1  0  0  0
 28 29  1  0  0  0
 28 30  1  0  0  0
 28 49  1  0  0  0
 29 50  1  0  0  0
 29 51  1  0  0  0
 29 52  1  0  0  0
 30 53  1  0  0  0
 30 54  1  0  0  0
 30 55  1  0  0  0
M  END
> <Source File Index>
1

> <Ionization Penalty>
0

> <Source File Index>
14

> <State Penalty>
0

> <Tot Q>
0

> <entry id>
18189

> <i_f3d_flags>
0

> <subgroup collapsed>
0

> <tautomer probability>
1

> <docking score>
-7.54609

> <glide emodel>
-72.3844

> <glide gscore>
-7.54609

> <Source File>
Jnk1_18652-1.sdf

> <Source Path>
C:\Users\yujie\AppData\Roaming\MobaXterm\slash\tmp\dragdrop

> <entry id>
20093

> <Source File>
Jnk1Jnk1_dock_SP_confgen_100_lib.maegz

> <Source Path>
C:\Users\yujie\Desktop\FEPs

> <subgroup title>
Jnk1Jnk1_dock_SP_confgen_100_lib

> <subgroupid>
Jnk1Jnk1_dock_SP_confgen_100_lib

$$$$
