Jnk1_18632-1
                    3D
 Schrodinger Suite 2024-1.
 42 43  0  0  1  0            999 V2000
   26.2686   96.9291   29.1704 C   0  0  0  0  0  0
   24.8268   96.9424   29.6981 C   0  0  0  0  0  0
   24.6881   96.1571   30.8824 O   0  0  0  0  0  0
   24.5603   94.7829   30.7855 C   0  0  0  0  0  0
   24.6695   94.2185   29.5594 N   0  0  0  0  0  0
   24.5166   92.8883   29.4145 C   0  0  0  0  0  0
   24.6656   92.3450   28.1204 N   0  0  0  0  0  0
   24.0853   91.2548   27.5882 C   0  0  0  0  0  0
   23.3389   90.4977   28.2087 O   0  0  0  0  0  0
   24.3583   90.9786   26.1041 C   0  0  0  0  0  0
   25.5828   91.7196   25.5829 C   0  0  0  0  0  0
   25.4781   93.0540   25.1355 C   0  0  0  0  0  0
   26.6243   93.7371   24.6913 C   0  0  0  0  0  0
   27.8741   93.0891   24.6920 C   0  0  0  0  0  0
   27.9958   91.7543   25.1291 C   0  0  0  0  0  0
   29.2555   91.1952   25.1057 O   0  0  0  0  0  0
   29.3965   89.8469   25.5309 C   0  0  0  0  0  0
   26.8356   91.0740   25.5729 C   0  0  0  0  0  0
   24.2607   92.0562   30.5246 C   0  0  0  0  0  0
   24.1078   92.6286   31.7943 C   0  0  0  0  0  0
   23.7852   91.7726   32.8431 N   0  0  0  0  0  0
   24.2688   94.0277   31.9439 C   0  0  0  0  0  0
   24.1198   94.7044   33.2290 C   0  0  0  0  0  0
   24.0018   95.2480   34.2452 N   0  0  0  0  0  0
   26.3720   97.5992   28.3171 H   0  0  0  0  0  0
   26.5764   95.9366   28.8430 H   0  0  0  0  0  0
   26.9670   97.2542   29.9402 H   0  0  0  0  0  0
   24.5588   97.9661   29.9594 H   0  0  0  0  0  0
   24.1161   96.6415   28.9267 H   0  0  0  0  0  0
   25.1872   92.9173   27.4722 H   0  0  0  0  0  0
   24.4992   89.9075   25.9641 H   0  0  0  0  0  0
   23.4755   91.2550   25.5296 H   0  0  0  0  0  0
   24.5223   93.5583   25.1360 H   0  0  0  0  0  0
   26.5465   94.7593   24.3497 H   0  0  0  0  0  0
   28.7506   93.6214   24.3530 H   0  0  0  0  0  0
   30.4457   89.5589   25.4713 H   0  0  0  0  0  0
   29.0782   89.7157   26.5660 H   0  0  0  0  0  0
   28.8305   89.1671   24.8926 H   0  0  0  0  0  0
   26.8856   90.0545   25.9219 H   0  0  0  0  0  0
   24.1690   90.9859   30.4201 H   0  0  0  0  0  0
   23.5311   92.1192   33.7603 H   0  0  0  0  0  0
   23.6479   90.7785   32.6915 H   0  0  0  0  0  0
  1  2  1  0  0  0
  1 25  1  0  0  0
  1 26  1  0  0  0
  1 27  1  0  0  0
  2  3  1  0  0  0
  2 28  1  0  0  0
  2 29  1  0  0  0
  3  4  1  0  0  0
  4 22  1  0  0  0
  4  5  2  0  0  0
  5  6  1  0  0  0
  6  7  1  0  0  0
  6 19  2  0  0  0
  7  8  1  0  0  0
  7 30  1  0  0  0
  8  9  2  0  0  0
  8 10  1  0  0  0
 10 11  1  0  0  0
 10 31  1  0  0  0
 10 32  1  0  0  0
 11 18  1  0  0  0
 11 12  2  0  0  0
 12 13  1  0  0  0
 12 33  1  0  0  0
 13 14  2  0  0  0
 13 34  1  0  0  0
 14 15  1  0  0  0
 14 35  1  0  0  0
 15 16  1  0  0  0
 15 18  2  0  0  0
 16 17  1  0  0  0
 17 36  1  0  0  0
 17 37  1  0  0  0
 17 38  1  0  0  0
 18 39  1  0  0  0
 19 20  1  0  0  0
 19 40  1  0  0  0
 20 21  1  0  0  0
 20 22  2  0  0  0
 21 41  1  0  0  0
 21 42  1  0  0  0
 22 23  1  0  0  0
 23 24  3  0  0  0
M  END
> <Tot Q>
0

> <Source File Index>
1

> <i_f3d_flags>
0

> <subgroup collapsed>
0

> <Ionization Penalty>
0

> <State Penalty>
0

> <docking score>
-8.27678

> <glide emodel>
-67.6761

> <glide gscore>
-8.27678

> <tautomer probability>
1

> <Source File>
Jnk1_18632-1.sdf

> <Source Path>
C:\Users\yujie\AppData\Roaming\MobaXterm\slash\tmp\dragdrop

> <entry id>
20085

> <job name>
glide-dock_SP_FEP_Jnk1

> <subgroup title>
glide-dock_SP_FEP_Jnk1_pv

> <subgroupid>
glide-dock_SP_FEP_Jnk1_pv5

$$$$
