Jnk1_18634-1
                    3D
 Schrodinger Suite 2024-1.
 46 47  0  0  1  0            999 V2000
   26.3331   96.7860   29.1776 C   0  0  0  0  0  0
   24.8981   96.8359   29.7296 C   0  0  0  0  0  0
   24.7478   96.0580   30.9198 O   0  0  0  0  0  0
   24.5816   94.6875   30.8283 C   0  0  0  0  0  0
   24.7016   94.1130   29.6085 N   0  0  0  0  0  0
   24.5211   92.7860   29.4713 C   0  0  0  0  0  0
   24.7307   92.2203   28.2017 N   0  0  0  0  0  0
   24.0265   91.2548   27.5928 C   0  0  0  0  0  0
   23.1302   90.6178   28.1447 O   0  0  0  0  0  0
   24.3708   90.9602   26.1235 C   0  0  0  0  0  0
   25.4690   91.8647   25.5489 C   0  0  0  0  0  0
   25.2480   93.2597   25.4694 C   0  0  0  0  0  0
   26.2410   94.1345   24.9926 C   0  0  0  0  0  0
   25.9403   95.4785   24.9983 O   0  0  0  0  0  0
   26.9005   96.3784   24.4660 C   0  0  0  0  0  0
   27.4704   93.5907   24.5526 C   0  0  0  0  0  0
   27.6862   92.2000   24.5877 C   0  0  0  0  0  0
   26.6900   91.3213   25.0850 C   0  0  0  0  0  0
   26.8465   89.9523   25.1300 O   0  0  0  0  0  0
   27.9993   89.3783   24.5364 C   0  0  0  0  0  0
   24.1916   91.9676   30.5677 C   0  0  0  0  0  0
   24.0249   92.5536   31.8288 C   0  0  0  0  0  0
   23.6325   91.7092   32.8652 N   0  0  0  0  0  0
   24.2461   93.9439   31.9831 C   0  0  0  0  0  0
   24.0918   94.6321   33.2611 C   0  0  0  0  0  0
   23.9680   95.1832   34.2730 N   0  0  0  0  0  0
   26.4369   97.4381   28.3105 H   0  0  0  0  0  0
   26.6131   95.7809   28.8603 H   0  0  0  0  0  0
   27.0541   97.1106   29.9294 H   0  0  0  0  0  0
   24.6599   97.8667   29.9912 H   0  0  0  0  0  0
   24.1682   96.5504   28.9702 H   0  0  0  0  0  0
   25.3650   92.7292   27.6013 H   0  0  0  0  0  0
   24.6400   89.9070   26.0392 H   0  0  0  0  0  0
   23.4689   91.0928   25.5295 H   0  0  0  0  0  0
   24.3036   93.6703   25.7962 H   0  0  0  0  0  0
   26.5096   97.3937   24.5127 H   0  0  0  0  0  0
   27.8305   96.3554   25.0366 H   0  0  0  0  0  0
   27.1138   96.1550   23.4191 H   0  0  0  0  0  0
   28.2652   94.2216   24.1781 H   0  0  0  0  0  0
   28.6365   91.8334   24.2337 H   0  0  0  0  0  0
   27.9334   88.2919   24.6008 H   0  0  0  0  0  0
   28.0788   89.6415   23.4797 H   0  0  0  0  0  0
   28.9069   89.6864   25.0570 H   0  0  0  0  0  0
   24.0598   90.9013   30.4528 H   0  0  0  0  0  0
   23.4601   92.0533   33.8003 H   0  0  0  0  0  0
   23.5233   90.7101   32.7272 H   0  0  0  0  0  0
  1  2  1  0  0  0
  1 27  1  0  0  0
  1 28  1  0  0  0
  1 29  1  0  0  0
  2  3  1  0  0  0
  2 30  1  0  0  0
  2 31  1  0  0  0
  3  4  1  0  0  0
  4 24  1  0  0  0
  4  5  2  0  0  0
  5  6  1  0  0  0
  6  7  1  0  0  0
  6 21  2  0  0  0
  7  8  1  0  0  0
  7 32  1  0  0  0
  8  9  2  0  0  0
  8 10  1  0  0  0
 10 11  1  0  0  0
 10 33  1  0  0  0
 10 34  1  0  0  0
 11 18  1  0  0  0
 11 12  2  0  0  0
 12 13  1  0  0  0
 12 35  1  0  0  0
 13 14  1  0  0  0
 13 16  2  0  0  0
 14 15  1  0  0  0
 15 36  1  0  0  0
 15 37  1  0  0  0
 15 38  1  0  0  0
 16 17  1  0  0  0
 16 39  1  0  0  0
 17 18  2  0  0  0
 17 40  1  0  0  0
 18 19  1  0  0  0
 19 20  1  0  0  0
 20 41  1  0  0  0
 20 42  1  0  0  0
 20 43  1  0  0  0
 21 22  1  0  0  0
 21 44  1  0  0  0
 22 23  1  0  0  0
 22 24  2  0  0  0
 23 45  1  0  0  0
 23 46  1  0  0  0
 24 25  1  0  0  0
 25 26  3  0  0  0
M  END
> <Tot Q>
0

> <Source File Index>
1

> <i_f3d_flags>
0

> <subgroup collapsed>
0

> <Ionization Penalty>
0

> <State Penalty>
0

> <docking score>
-8.21323

> <glide emodel>
-70.8053

> <glide gscore>
-8.21323

> <tautomer probability>
1

> <Source File>
Jnk1_18634-1.sdf

> <Source Path>
C:\Users\yujie\AppData\Roaming\MobaXterm\slash\tmp\dragdrop

> <entry id>
20087

> <job name>
glide-dock_SP_FEP_Jnk1

> <subgroup title>
glide-dock_SP_FEP_Jnk1_pv

> <subgroupid>
glide-dock_SP_FEP_Jnk1_pv7

$$$$
