Jnk1_18636-1
                    3D
 Schrodinger Suite 2024-1.
 38 39  0  0  1  0            999 V2000
   26.2689   97.7828   29.5863 C   0  0  0  0  0  0
   24.8274   97.6503   30.1004 C   0  0  0  0  0  0
   24.7291   96.6861   31.1471 O   0  0  0  0  0  0
   24.6139   95.3416   30.8335 C   0  0  0  0  0  0
   24.7205   94.9750   29.5334 N   0  0  0  0  0  0
   24.5760   93.6830   29.1787 C   0  0  0  0  0  0
   24.6710   93.3763   27.7970 N   0  0  0  0  0  0
   25.0674   92.2310   27.2095 C   0  0  0  0  0  0
   25.3480   91.2017   27.8164 O   0  0  0  0  0  0
   25.1313   92.2411   25.6835 C   0  0  0  0  0  0
   26.3644   92.9866   25.1951 C   0  0  0  0  0  0
   26.2475   94.3514   24.8467 C   0  0  0  0  0  0
   27.3687   95.0737   24.4005 C   0  0  0  0  0  0
   27.1905   96.9132   23.9502 Br  0  0  0  0  0  0
   28.6172   94.4322   24.2868 C   0  0  0  0  0  0
   28.7396   93.0701   24.6182 C   0  0  0  0  0  0
   27.6214   92.3443   25.0761 C   0  0  0  0  0  0
   27.8501   90.5056   25.5282 Br  0  0  0  0  0  0
   24.2806   92.6926   30.1473 C   0  0  0  0  0  0
   24.1725   93.0526   31.5041 C   0  0  0  0  0  0
   23.8687   92.0569   32.4368 N   0  0  0  0  0  0
   24.3425   94.4112   31.8628 C   0  0  0  0  0  0
   24.2139   94.8792   33.2412 C   0  0  0  0  0  0
   24.1115   95.2548   34.3294 N   0  0  0  0  0  0
   26.3219   98.5451   28.8099 H   0  0  0  0  0  0
   26.6390   96.8517   29.1559 H   0  0  0  0  0  0
   26.9488   98.0714   30.3863 H   0  0  0  0  0  0
   24.5151   98.6089   30.5124 H   0  0  0  0  0  0
   24.1334   97.4431   29.2860 H   0  0  0  0  0  0
   24.5480   94.1670   27.1827 H   0  0  0  0  0  0
   25.1194   91.2210   25.2964 H   0  0  0  0  0  0
   24.2395   92.7251   25.2946 H   0  0  0  0  0  0
   25.2940   94.8536   24.9197 H   0  0  0  0  0  0
   29.4795   94.9892   23.9483 H   0  0  0  0  0  0
   29.6972   92.5793   24.5280 H   0  0  0  0  0  0
   24.1262   91.6621   29.8670 H   0  0  0  0  0  0
   23.7639   92.2624   33.4215 H   0  0  0  0  0  0
   23.8211   91.0793   32.1801 H   0  0  0  0  0  0
  1  2  1  0  0  0
  1 25  1  0  0  0
  1 26  1  0  0  0
  1 27  1  0  0  0
  2  3  1  0  0  0
  2 28  1  0  0  0
  2 29  1  0  0  0
  3  4  1  0  0  0
  4 22  1  0  0  0
  4  5  2  0  0  0
  5  6  1  0  0  0
  6  7  1  0  0  0
  6 19  2  0  0  0
  7  8  1  0  0  0
  7 30  1  0  0  0
  8  9  2  0  0  0
  8 10  1  0  0  0
 10 11  1  0  0  0
 10 31  1  0  0  0
 10 32  1  0  0  0
 11 17  1  0  0  0
 11 12  2  0  0  0
 12 13  1  0  0  0
 12 33  1  0  0  0
 13 14  1  0  0  0
 13 15  2  0  0  0
 15 16  1  0  0  0
 15 34  1  0  0  0
 16 17  2  0  0  0
 16 35  1  0  0  0
 17 18  1  0  0  0
 19 20  1  0  0  0
 19 36  1  0  0  0
 20 21  1  0  0  0
 20 22  2  0  0  0
 21 37  1  0  0  0
 21 38  1  0  0  0
 22 23  1  0  0  0
 23 24  3  0  0  0
M  END
> <Tot Q>
0

> <Source File Index>
1

> <i_f3d_flags>
0

> <subgroup collapsed>
0

> <Ionization Penalty>
0

> <State Penalty>
0

> <docking score>
-6.35319

> <glide emodel>
-60.4201

> <glide gscore>
-6.35319

> <tautomer probability>
1

> <Source File>
Jnk1_18636-1.sdf

> <Source Path>
C:\Users\yujie\AppData\Roaming\MobaXterm\slash\tmp\dragdrop

> <entry id>
20089

> <job name>
glide-dock_SP_FEP_Jnk1_2

> <subgroup title>
glide-dock_SP_FEP_Jnk1_2_pv

> <subgroupid>
glide-dock_SP_FEP_Jnk1_2_pv

$$$$
