Jnk1_18639-1
                    3D
 Schrodinger Suite 2024-1.
 48 49  0  0  1  0            999 V2000
   26.2691   97.0803   29.1641 C   0  0  0  0  0  0
   24.8491   97.1225   29.7456 C   0  0  0  0  0  0
   24.7261   96.3021   30.9074 O   0  0  0  0  0  0
   24.5824   94.9333   30.7680 C   0  0  0  0  0  0
   24.6686   94.4088   29.5229 N   0  0  0  0  0  0
   24.5016   93.0868   29.3289 C   0  0  0  0  0  0
   24.6122   92.6206   28.0008 N   0  0  0  0  0  0
   24.2762   91.4442   27.4455 C   0  0  0  0  0  0
   23.8483   90.4603   28.0457 O   0  0  0  0  0  0
   24.4300   91.3954   25.9303 C   0  0  0  0  0  0
   25.8805   91.5895   25.5096 C   0  0  0  0  0  0
   26.6687   90.4543   25.2437 C   0  0  0  0  0  0
   28.0211   90.5710   24.8424 C   0  0  0  0  0  0
   28.8094   89.4757   24.5505 O   0  0  0  0  0  0
   28.2124   88.1865   24.5370 C   0  0  0  0  0  0
   28.5837   91.8675   24.7190 C   0  0  0  0  0  0
   29.9942   92.0648   24.3295 N   0  3  0  0  0  0
   30.8314   91.2495   24.7026 O   0  0  0  0  0  0
   30.2699   93.0669   23.6777 O   0  5  0  0  0  0
   27.7811   93.0041   24.9673 C   0  0  0  0  0  0
   26.4292   92.8834   25.3661 C   0  0  0  0  0  0
   25.6125   93.9635   25.6372 O   0  0  0  0  0  0
   26.1704   95.2687   25.5714 C   0  0  0  0  0  0
   24.2419   92.2200   30.4120 C   0  0  0  0  0  0
   24.1224   92.7512   31.7043 C   0  0  0  0  0  0
   23.8140   91.8672   32.7329 N   0  0  0  0  0  0
   24.2993   94.1413   31.9025 C   0  0  0  0  0  0
   24.1787   94.7677   33.2154 C   0  0  0  0  0  0
   24.0829   95.2687   34.2550 N   0  0  0  0  0  0
   26.3736   97.8033   28.3548 H   0  0  0  0  0  0
   26.5205   96.1009   28.7583 H   0  0  0  0  0  0
   27.0069   97.3143   29.9300 H   0  0  0  0  0  0
   24.6255   98.1447   30.0512 H   0  0  0  0  0  0
   24.1018   96.8701   28.9914 H   0  0  0  0  0  0
   24.9325   93.3171   27.3407 H   0  0  0  0  0  0
   24.0361   90.4580   25.5345 H   0  0  0  0  0  0
   23.8151   92.1958   25.5294 H   0  0  0  0  0  0
   26.2011   89.4866   25.3468 H   0  0  0  0  0  0
   28.9534   87.4528   24.2202 H   0  0  0  0  0  0
   27.8677   87.8949   25.5293 H   0  0  0  0  0  0
   27.3808   88.1368   23.8331 H   0  0  0  0  0  0
   28.2360   93.9768   24.8581 H   0  0  0  0  0  0
   25.4110   95.9979   25.8534 H   0  0  0  0  0  0
   27.0071   95.3828   26.2626 H   0  0  0  0  0  0
   26.4994   95.5106   24.5598 H   0  0  0  0  0  0
   24.1220   91.1569   30.2801 H   0  0  0  0  0  0
   23.6026   92.1873   33.6702 H   0  0  0  0  0  0
   23.6566   90.8830   32.5532 H   0  0  0  0  0  0
  1  2  1  0  0  0
  1 30  1  0  0  0
  1 31  1  0  0  0
  1 32  1  0  0  0
  2  3  1  0  0  0
  2 33  1  0  0  0
  2 34  1  0  0  0
  3  4  1  0  0  0
  4 27  1  0  0  0
  4  5  2  0  0  0
  5  6  1  0  0  0
  6  7  1  0  0  0
  6 24  2  0  0  0
  7  8  1  0  0  0
  7 35  1  0  0  0
  8  9  2  0  0  0
  8 10  1  0  0  0
 10 11  1  0  0  0
 10 36  1  0  0  0
 10 37  1  0  0  0
 11 21  1  0  0  0
 11 12  2  0  0  0
 12 13  1  0  0  0
 12 38  1  0  0  0
 13 14  1  0  0  0
 13 16  2  0  0  0
 14 15  1  0  0  0
 15 39  1  0  0  0
 15 40  1  0  0  0
 15 41  1  0  0  0
 16 17  1  0  0  0
 16 20  1  0  0  0
 17 18  2  0  0  0
 17 19  1  0  0  0
 20 21  2  0  0  0
 20 42  1  0  0  0
 21 22  1  0  0  0
 22 23  1  0  0  0
 23 43  1  0  0  0
 23 44  1  0  0  0
 23 45  1  0  0  0
 24 25  1  0  0  0
 24 46  1  0  0  0
 25 26  1  0  0  0
 25 27  2  0  0  0
 26 47  1  0  0  0
 26 48  1  0  0  0
 27 28  1  0  0  0
 28 29  3  0  0  0
M  CHG  2  17   1  19  -1
M  END
> <Tot Q>
0

> <Source File Index>
1

> <i_f3d_flags>
0

> <subgroup collapsed>
0

> <Ionization Penalty>
0

> <State Penalty>
0

> <docking score>
-7.98254

> <glide emodel>
-75.007

> <glide gscore>
-7.98254

> <tautomer probability>
1

> <Source File>
Jnk1_18639-1.sdf

> <Source Path>
C:\Users\yujie\AppData\Roaming\MobaXterm\slash\tmp\dragdrop

> <entry id>
20092

> <job name>
glide-dock_SP_FEP_Jnk1

> <subgroup title>
glide-dock_SP_FEP_Jnk1_pv

> <subgroupid>
glide-dock_SP_FEP_Jnk1_pv9

$$$$
