Jnk1_18624-1
                    3D
 Schrodinger Suite 2024-1.
 38 39  0  0  1  0            999 V2000
   26.3989   96.4633   28.7875 C   0  0  0  0  0  0
   24.9385   96.5663   29.2482 C   0  0  0  0  0  0
   24.7191   95.8572   30.4720 O   0  0  0  0  0  0
   24.5724   94.4768   30.4813 C   0  0  0  0  0  0
   24.6731   93.8158   29.2964 N   0  0  0  0  0  0
   24.5132   92.4684   29.2600 C   0  0  0  0  0  0
   24.7325   91.7381   28.0807 N   0  0  0  0  0  0
   24.8629   92.2098   26.8210 C   0  0  0  0  0  0
   24.6574   93.3765   26.4826 O   0  0  0  0  0  0
   25.3071   91.1950   25.7576 C   0  0  0  0  0  0
   26.7237   91.4750   25.2532 C   0  0  0  0  0  0
   26.9884   92.6111   24.4775 C   0  0  0  0  0  0
   28.2817   92.8684   24.0306 C   0  0  0  0  0  0
   29.3122   91.9882   24.3552 C   0  0  0  0  0  0
   29.0599   90.8545   25.1266 C   0  0  0  0  0  0
   27.7661   90.5977   25.5724 C   0  0  0  0  0  0
   24.1944   91.7438   30.4068 C   0  0  0  0  0  0
   24.0489   92.4166   31.6193 C   0  0  0  0  0  0
   23.6760   91.6556   32.7294 N   0  0  0  0  0  0
   24.2688   93.8084   31.6782 C   0  0  0  0  0  0
   24.1658   94.5647   32.9280 C   0  0  0  0  0  0
   24.0866   95.1648   33.9160 N   0  0  0  0  0  0
   26.5758   97.0820   27.9073 H   0  0  0  0  0  0
   26.6685   95.4412   28.5238 H   0  0  0  0  0  0
   27.0692   96.8004   29.5757 H   0  0  0  0  0  0
   24.6978   97.6131   29.4349 H   0  0  0  0  0  0
   24.2510   96.2428   28.4646 H   0  0  0  0  0  0
   24.8457   90.7467   28.2093 H   0  0  0  0  0  0
   25.2378   90.1761   26.1420 H   0  0  0  0  0  0
   24.6142   91.2492   24.9205 H   0  0  0  0  0  0
   26.1928   93.2969   24.2267 H   0  0  0  0  0  0
   28.4849   93.7461   23.4338 H   0  0  0  0  0  0
   30.3164   92.1872   24.0089 H   0  0  0  0  0  0
   29.8642   90.1784   25.3743 H   0  0  0  0  0  0
   27.5833   89.7168   26.1680 H   0  0  0  0  0  0
   24.0627   90.6726   30.3666 H   0  0  0  0  0  0
   23.5387   92.1034   33.6267 H   0  0  0  0  0  0
   23.5529   90.6532   32.6330 H   0  0  0  0  0  0
  1  2  1  0  0  0
  1 23  1  0  0  0
  1 24  1  0  0  0
  1 25  1  0  0  0
  2  3  1  0  0  0
  2 26  1  0  0  0
  2 27  1  0  0  0
  3  4  1  0  0  0
  4 20  1  0  0  0
  4  5  2  0  0  0
  5  6  1  0  0  0
  6  7  1  0  0  0
  6 17  2  0  0  0
  7  8  1  0  0  0
  7 28  1  0  0  0
  8  9  2  0  0  0
  8 10  1  0  0  0
 10 11  1  0  0  0
 10 29  1  0  0  0
 10 30  1  0  0  0
 11 16  1  0  0  0
 11 12  2  0  0  0
 12 13  1  0  0  0
 12 31  1  0  0  0
 13 14  2  0  0  0
 13 32  1  0  0  0
 14 15  1  0  0  0
 14 33  1  0  0  0
 15 16  2  0  0  0
 15 34  1  0  0  0
 16 35  1  0  0  0
 17 18  1  0  0  0
 17 36  1  0  0  0
 18 19  1  0  0  0
 18 20  2  0  0  0
 19 37  1  0  0  0
 19 38  1  0  0  0
 20 21  1  0  0  0
 21 22  3  0  0  0
M  END
> <Source File Index>
1

> <Ionization Penalty>
0

> <Source File Index>
21

> <State Penalty>
0

> <Tot Q>
0

> <entry id>
18196

> <i_f3d_flags>
0

> <subgroup collapsed>
0

> <tautomer probability>
1

> <docking score>
-7.10468

> <glide emodel>
-58.5939

> <glide gscore>
-7.10468

> <Source File>
Jnk1_18624-1.sdf

> <Source Path>
C:\Users\yujie\AppData\Roaming\MobaXterm\slash\tmp\dragdrop

> <entry id>
20077

> <Source File>
Jnk1Jnk1_dock_SP_confgen_100_lib.maegz

> <Source Path>
C:\Users\yujie\Desktop\FEPs

> <subgroup title>
Jnk1Jnk1_dock_SP_confgen_100_lib

> <subgroupid>
Jnk1Jnk1_dock_SP_confgen_100_lib

$$$$
