Jnk1_18658-1
                    3D
 Schrodinger Suite 2024-1.
 47 48  0  0  1  0            999 V2000
   26.7942   96.2250   25.1966 C   0  0  0  0  0  0
   27.7189   95.2539   24.7295 O   0  0  0  0  0  0
   27.3847   93.9236   24.8546 C   0  0  0  0  0  0
   28.3684   92.9810   24.5052 C   0  0  0  0  0  0
   28.1121   91.6016   24.6008 C   0  0  0  0  0  0
   26.8563   91.1311   25.0555 C   0  0  0  0  0  0
   26.5293   89.7944   25.1297 O   0  0  0  0  0  0
   27.4941   88.8328   24.7294 C   0  0  0  0  0  0
   25.8689   92.0736   25.4290 C   0  0  0  0  0  0
   24.4972   91.6129   25.9160 C   0  0  0  0  0  0
   24.3711   91.6235   27.4401 C   0  0  0  0  0  0
   23.9826   90.6107   28.0186 O   0  0  0  0  0  0
   24.6688   92.7952   28.0312 N   0  0  0  0  0  0
   24.5360   93.2336   29.3714 C   0  0  0  0  0  0
   24.1548   92.3705   30.4240 C   0  0  0  0  0  0
   24.0116   92.8848   31.7238 C   0  0  0  0  0  0
   23.6054   92.0088   32.7294 N   0  0  0  0  0  0
   24.2690   94.2582   31.9552 C   0  0  0  0  0  0
   24.1239   94.8680   33.2750 C   0  0  0  0  0  0
   24.0090   95.3546   34.3206 N   0  0  0  0  0  0
   24.6690   95.0461   30.8525 C   0  0  0  0  0  0
   24.9521   96.3883   31.0318 O   0  0  0  0  0  0
   25.4957   97.1222   29.9361 C   0  0  0  0  0  0
   25.8944   98.5252   30.4125 C   0  0  0  0  0  0
   24.7920   99.4040   30.3431 O   0  0  0  0  0  0
   24.7904   94.5373   29.6030 N   0  0  0  0  0  0
   26.1289   93.4575   25.3088 C   0  0  0  0  0  0
   27.2303   97.2177   25.0857 H   0  0  0  0  0  0
   25.8687   96.2041   24.6200 H   0  0  0  0  0  0
   26.5670   96.0833   26.2544 H   0  0  0  0  0  0
   29.3317   93.3217   24.1547 H   0  0  0  0  0  0
   28.8972   90.9223   24.3070 H   0  0  0  0  0  0
   27.0690   87.8340   24.8285 H   0  0  0  0  0  0
   27.7831   88.9636   23.6858 H   0  0  0  0  0  0
   28.3826   88.8765   25.3605 H   0  0  0  0  0  0
   24.2484   90.6247   25.5270 H   0  0  0  0  0  0
   23.7426   92.2935   25.5295 H   0  0  0  0  0  0
   24.9926   93.5125   27.4014 H   0  0  0  0  0  0
   23.9585   91.3231   30.2623 H   0  0  0  0  0  0
   23.4694   92.3108   33.6868 H   0  0  0  0  0  0
   23.4706   91.0214   32.5501 H   0  0  0  0  0  0
   24.7965   97.1746   29.0993 H   0  0  0  0  0  0
   26.3954   96.6146   29.5821 H   0  0  0  0  0  0
   26.6686   98.9262   29.7586 H   0  0  0  0  0  0
   26.3068   98.5003   31.4221 H   0  0  0  0  0  0
   25.0897  100.2803   30.5347 H   0  0  0  0  0  0
   25.3445   94.1524   25.5666 H   0  0  0  0  0  0
  1  2  1  0  0  0
  1 28  1  0  0  0
  1 29  1  0  0  0
  1 30  1  0  0  0
  2  3  1  0  0  0
  3 27  1  0  0  0
  3  4  2  0  0  0
  4  5  1  0  0  0
  4 31  1  0  0  0
  5  6  2  0  0  0
  5 32  1  0  0  0
  6  7  1  0  0  0
  6  9  1  0  0  0
  7  8  1  0  0  0
  8 33  1  0  0  0
  8 34  1  0  0  0
  8 35  1  0  0  0
  9 10  1  0  0  0
  9 27  2  0  0  0
 10 11  1  0  0  0
 10 36  1  0  0  0
 10 37  1  0  0  0
 11 12  2  0  0  0
 11 13  1  0  0  0
 13 14  1  0  0  0
 13 38  1  0  0  0
 14 26  1  0  0  0
 14 15  2  0  0  0
 15 16  1  0  0  0
 15 39  1  0  0  0
 16 17  1  0  0  0
 16 18  2  0  0  0
 17 40  1  0  0  0
 17 41  1  0  0  0
 18 19  1  0  0  0
 18 21  1  0  0  0
 19 20  3  0  0  0
 21 22  1  0  0  0
 21 26  2  0  0  0
 22 23  1  0  0  0
 23 24  1  0  0  0
 23 42  1  0  0  0
 23 43  1  0  0  0
 24 25  1  0  0  0
 24 44  1  0  0  0
 24 45  1  0  0  0
 25 46  1  0  0  0
 27 47  1  0  0  0
M  END
> <Tot Q>
0

> <Source File Index>
1

> <i_f3d_flags>
0

> <subgroup collapsed>
0

> <Ionization Penalty>
0

> <State Penalty>
0

> <docking score>
-7.07229

> <glide emodel>
-64.326

> <glide gscore>
-7.07229

> <tautomer probability>
1

> <Source File>
Jnk1_18658-1.sdf

> <Source Path>
C:\Users\yujie\AppData\Roaming\MobaXterm\slash\tmp\dragdrop

> <entry id>
20094

> <job name>
glide-dock_SP_FEP_Jnk1_2

> <subgroup title>
glide-dock_SP_FEP_Jnk1_2_pv

> <subgroupid>
glide-dock_SP_FEP_Jnk1_2_pv2

$$$$
