Jnk1_18637-1
                    3D
 Schrodinger Suite 2024-1.
 53 54  0  0  1  0            999 V2000
   31.6609   94.0676   23.9083 C   0  0  0  0  0  0
   30.2794   93.4500   24.1349 C   0  0  0  0  0  0
   30.4053   92.0301   24.1311 O   0  0  0  0  0  0
   29.2994   91.2661   24.4554 C   0  0  0  0  0  0
   28.1982   91.9085   24.9121 N   0  0  0  0  0  0
   27.1025   91.2007   25.2628 C   0  0  0  0  0  0
   25.9213   91.7733   25.7947 N   0  0  0  0  0  0
   25.7247   93.0350   26.2156 C   0  0  0  0  0  0
   26.5618   93.9354   26.1514 O   0  0  0  0  0  0
   24.3425   93.3318   26.7993 C   0  0  0  0  0  0
   24.4437   93.8743   28.2206 C   0  0  0  0  0  0
   24.3525   92.9784   29.3056 C   0  0  0  0  0  0
   24.4362   93.4433   30.6394 C   0  0  0  0  0  0
   24.3294   92.6215   31.7425 O   0  0  0  0  0  0
   23.8502   91.2997   31.5531 C   0  0  0  0  0  0
   24.6305   94.8213   30.8791 C   0  0  0  0  0  0
   24.6686   95.2152   32.2459 N   0  0  0  0  0  0
   24.6677   96.4362   32.8088 C   0  0  0  0  0  0
   24.6806   96.4509   34.3303 C   0  0  0  0  0  0
   24.6794   97.5064   32.2033 O   0  0  0  0  0  0
   24.7203   95.7200   29.7892 C   0  0  0  0  0  0
   24.6126   95.2594   28.4536 C   0  0  0  0  0  0
   24.6562   96.0926   27.3535 O   0  0  0  0  0  0
   24.7964   97.4902   27.5627 C   0  0  0  0  0  0
   27.0687   89.8015   25.1295 C   0  0  0  0  0  0
   28.2030   89.1137   24.6683 C   0  0  0  0  0  0
   28.1429   87.7204   24.5764 N   0  0  0  0  0  0
   29.3582   89.8588   24.3325 C   0  0  0  0  0  0
   30.5834   89.2117   23.8831 C   0  0  0  0  0  0
   31.5547   88.6946   23.5286 N   0  0  0  0  0  0
   31.6054   95.1561   23.9365 H   0  0  0  0  0  0
   32.0676   93.7792   22.9378 H   0  0  0  0  0  0
   32.3637   93.7530   24.6805 H   0  0  0  0  0  0
   29.8779   93.8156   25.0793 H   0  0  0  0  0  0
   29.5943   93.7614   23.3461 H   0  0  0  0  0  0
   25.1471   91.1383   25.9104 H   0  0  0  0  0  0
   23.8644   94.0545   26.1467 H   0  0  0  0  0  0
   23.7153   92.4390   26.7844 H   0  0  0  0  0  0
   24.2178   91.9286   29.0938 H   0  0  0  0  0  0
   23.6638   90.8553   32.5308 H   0  0  0  0  0  0
   22.9065   91.2872   31.0062 H   0  0  0  0  0  0
   24.5798   90.6791   31.0323 H   0  0  0  0  0  0
   24.6459   94.4380   32.8900 H   0  0  0  0  0  0
   25.7053   96.4362   34.6978 H   0  0  0  0  0  0
   24.1927   97.3475   34.7022 H   0  0  0  0  0  0
   24.1589   95.5859   34.7323 H   0  0  0  0  0  0
   24.8602   96.7698   29.9748 H   0  0  0  0  0  0
   24.7881   98.0006   26.6002 H   0  0  0  0  0  0
   23.9711   97.8914   28.1523 H   0  0  0  0  0  0
   25.7422   97.7266   28.0517 H   0  0  0  0  0  0
   26.1764   89.2520   25.3931 H   0  0  0  0  0  0
   28.8701   87.1968   24.1096 H   0  0  0  0  0  0
   27.2685   87.2306   24.7205 H   0  0  0  0  0  0
  1  2  1  0  0  0
  1 31  1  0  0  0
  1 32  1  0  0  0
  1 33  1  0  0  0
  2  3  1  0  0  0
  2 34  1  0  0  0
  2 35  1  0  0  0
  3  4  1  0  0  0
  4 28  1  0  0  0
  4  5  2  0  0  0
  5  6  1  0  0  0
  6  7  1  0  0  0
  6 25  2  0  0  0
  7  8  1  0  0  0
  7 36  1  0  0  0
  8  9  2  0  0  0
  8 10  1  0  0  0
 10 11  1  0  0  0
 10 37  1  0  0  0
 10 38  1  0  0  0
 11 22  1  0  0  0
 11 12  2  0  0  0
 12 13  1  0  0  0
 12 39  1  0  0  0
 13 14  1  0  0  0
 13 16  2  0  0  0
 14 15  1  0  0  0
 15 40  1  0  0  0
 15 41  1  0  0  0
 15 42  1  0  0  0
 16 17  1  0  0  0
 16 21  1  0  0  0
 17 18  1  0  0  0
 17 43  1  0  0  0
 18 19  1  0  0  0
 18 20  2  0  0  0
 19 44  1  0  0  0
 19 45  1  0  0  0
 19 46  1  0  0  0
 21 22  2  0  0  0
 21 47  1  0  0  0
 22 23  1  0  0  0
 23 24  1  0  0  0
 24 48  1  0  0  0
 24 49  1  0  0  0
 24 50  1  0  0  0
 25 26  1  0  0  0
 25 51  1  0  0  0
 26 27  1  0  0  0
 26 28  2  0  0  0
 27 52  1  0  0  0
 27 53  1  0  0  0
 28 29  1  0  0  0
 29 30  3  0  0  0
M  END
> <Tot Q>
0

> <Source File Index>
1

> <i_f3d_flags>
0

> <subgroup collapsed>
0

> <Ionization Penalty>
0

> <State Penalty>
0

> <docking score>
-5.58564

> <glide emodel>
-61.4812

> <glide gscore>
-5.58564

> <tautomer probability>
1

> <Source File>
Jnk1_18637-1.sdf

> <Source Path>
C:\Users\yujie\AppData\Roaming\MobaXterm\slash\tmp\dragdrop

> <entry id>
20090

> <job name>
glide-dock_SP_FEP_Jnk1_2

> <subgroup title>
glide-dock_SP_FEP_Jnk1_2_pv

> <subgroupid>
glide-dock_SP_FEP_Jnk1_2_pv1

$$$$
