Jnk1_18629-1
                    3D
 Schrodinger Suite 2024-1.
 41 42  0  0  1  0            999 V2000
   24.0001   97.1830   28.8848 C   0  0  0  0  0  0
   25.2373   96.8443   29.7305 C   0  0  0  0  0  0
   24.8874   96.0930   30.8917 O   0  0  0  0  0  0
   24.6666   94.7298   30.7919 C   0  0  0  0  0  0
   24.8021   94.1512   29.5750 N   0  0  0  0  0  0
   24.5545   92.8336   29.4304 C   0  0  0  0  0  0
   24.7261   92.2473   28.1607 N   0  0  0  0  0  0
   24.0154   91.2547   27.6006 C   0  0  0  0  0  0
   23.0699   90.6976   28.1583 O   0  0  0  0  0  0
   24.4073   90.8165   26.1812 C   0  0  0  0  0  0
   25.6151   91.5573   25.6124 C   0  0  0  0  0  0
   26.8139   90.8584   25.3571 C   0  0  0  0  0  0
   27.9424   91.5423   24.8644 C   0  0  0  0  0  0
   27.8808   92.9290   24.6309 C   0  0  0  0  0  0
   26.6825   93.6328   24.8688 C   0  0  0  0  0  0
   26.6213   95.1295   24.6464 C   0  0  0  0  0  0
   25.5475   92.9422   25.3378 C   0  0  0  0  0  0
   24.1805   92.0282   30.5253 C   0  0  0  0  0  0
   24.0093   92.6166   31.7842 C   0  0  0  0  0  0
   23.5768   91.7903   32.8192 N   0  0  0  0  0  0
   24.2634   94.0029   31.9353 C   0  0  0  0  0  0
   24.0921   94.6962   33.2082 C   0  0  0  0  0  0
   23.9572   95.2532   34.2167 N   0  0  0  0  0  0
   24.2740   97.8124   28.0375 H   0  0  0  0  0  0
   23.2601   97.7254   29.4729 H   0  0  0  0  0  0
   23.5192   96.2870   28.4899 H   0  0  0  0  0  0
   25.9999   96.3399   29.1353 H   0  0  0  0  0  0
   25.6942   97.7749   30.0713 H   0  0  0  0  0  0
   25.3999   92.6997   27.5591 H   0  0  0  0  0  0
   24.6173   89.7470   26.2037 H   0  0  0  0  0  0
   23.5499   90.9560   25.5291 H   0  0  0  0  0  0
   26.8772   89.7944   25.5337 H   0  0  0  0  0  0
   28.8578   91.0011   24.6711 H   0  0  0  0  0  0
   28.7556   93.4496   24.2701 H   0  0  0  0  0  0
   27.3063   95.4378   23.8560 H   0  0  0  0  0  0
   25.6156   95.4414   24.3646 H   0  0  0  0  0  0
   26.8995   95.6505   25.5633 H   0  0  0  0  0  0
   24.6258   93.4810   25.5084 H   0  0  0  0  0  0
   24.0070   90.9675   30.4098 H   0  0  0  0  0  0
   23.4372   92.1369   33.7615 H   0  0  0  0  0  0
   23.4693   90.7889   32.6912 H   0  0  0  0  0  0
  1  2  1  0  0  0
  1 24  1  0  0  0
  1 25  1  0  0  0
  1 26  1  0  0  0
  2  3  1  0  0  0
  2 27  1  0  0  0
  2 28  1  0  0  0
  3  4  1  0  0  0
  4 21  1  0  0  0
  4  5  2  0  0  0
  5  6  1  0  0  0
  6  7  1  0  0  0
  6 18  2  0  0  0
  7  8  1  0  0  0
  7 29  1  0  0  0
  8  9  2  0  0  0
  8 10  1  0  0  0
 10 11  1  0  0  0
 10 30  1  0  0  0
 10 31  1  0  0  0
 11 17  1  0  0  0
 11 12  2  0  0  0
 12 13  1  0  0  0
 12 32  1  0  0  0
 13 14  2  0  0  0
 13 33  1  0  0  0
 14 15  1  0  0  0
 14 34  1  0  0  0
 15 16  1  0  0  0
 15 17  2  0  0  0
 16 35  1  0  0  0
 16 36  1  0  0  0
 16 37  1  0  0  0
 17 38  1  0  0  0
 18 19  1  0  0  0
 18 39  1  0  0  0
 19 20  1  0  0  0
 19 21  2  0  0  0
 20 40  1  0  0  0
 20 41  1  0  0  0
 21 22  1  0  0  0
 22 23  3  0  0  0
M  END
> <Tot Q>
0

> <Source File Index>
1

> <i_f3d_flags>
0

> <subgroup collapsed>
0

> <Ionization Penalty>
0

> <State Penalty>
0

> <docking score>
-7.89906

> <glide emodel>
-65.7973

> <glide gscore>
-7.89906

> <tautomer probability>
1

> <Source File>
Jnk1_18629-1.sdf

> <Source Path>
C:\Users\yujie\AppData\Roaming\MobaXterm\slash\tmp\dragdrop

> <entry id>
20082

> <job name>
glide-dock_SP_FEP_Jnk1

> <subgroup title>
glide-dock_SP_FEP_Jnk1_pv

> <subgroupid>
glide-dock_SP_FEP_Jnk1_pv4

$$$$
