Jnk1_18659-1
                    3D
 Schrodinger Suite 2024-1.
 50 51  0  0  1  0            999 V2000
   25.7125   97.0730   28.7729 C   0  0  0  0  0  0
   24.4626   96.9488   29.6551 C   0  0  0  0  0  0
   24.7054   96.2247   30.8652 O   0  0  0  0  0  0
   24.6096   94.8442   30.8378 C   0  0  0  0  0  0
   24.7441   94.2418   29.6350 N   0  0  0  0  0  0
   24.5851   92.9104   29.5262 C   0  0  0  0  0  0
   24.7797   92.3290   28.2577 N   0  0  0  0  0  0
   24.1703   91.2718   27.7026 C   0  0  0  0  0  0
   23.3199   90.5874   28.2748 O   0  0  0  0  0  0
   24.5364   90.9340   26.2537 C   0  0  0  0  0  0
   25.6430   91.7968   25.6444 C   0  0  0  0  0  0
   25.4047   93.1626   25.3718 C   0  0  0  0  0  0
   26.3911   93.9696   24.7766 C   0  0  0  0  0  0
   26.0616   95.2822   24.5325 O   0  0  0  0  0  0
   26.9678   96.0571   23.7581 C   0  0  0  0  0  0
   27.6448   93.3953   24.4652 C   0  0  0  0  0  0
   27.8842   92.0327   24.7151 C   0  0  0  0  0  0
   26.8813   91.2170   25.2878 C   0  0  0  0  0  0
   27.0494   89.8715   25.5130 O   0  0  0  0  0  0
   28.0582   89.1934   24.7774 C   0  0  0  0  0  0
   24.3081   92.1203   30.6585 C   0  0  0  0  0  0
   24.1544   92.7272   31.9127 C   0  0  0  0  0  0
   23.8284   91.8881   32.9761 N   0  0  0  0  0  0
   24.3187   94.1319   32.0241 C   0  0  0  0  0  0
   24.1558   94.8640   33.2816 C   0  0  0  0  0  0
   24.0261   95.4574   34.2759 N   0  0  0  0  0  0
   26.0756   96.0957   28.4546 H   0  0  0  0  0  0
   26.5095   97.5463   29.3429 H   0  0  0  0  0  0
   24.1337   97.9489   29.9375 H   0  0  0  0  0  0
   23.6326   96.5177   29.0925 H   0  0  0  0  0  0
   25.3810   92.8437   27.6309 H   0  0  0  0  0  0
   24.7979   89.8787   26.2188 H   0  0  0  0  0  0
   23.6439   91.0433   25.6469 H   0  0  0  0  0  0
   24.4440   93.6007   25.6020 H   0  0  0  0  0  0
   26.5404   97.0439   23.5834 H   0  0  0  0  0  0
   27.9177   96.1981   24.2758 H   0  0  0  0  0  0
   27.1489   95.6021   22.7833 H   0  0  0  0  0  0
   28.4403   93.9755   24.0240 H   0  0  0  0  0  0
   28.8496   91.6297   24.4523 H   0  0  0  0  0  0
   27.9143   88.1181   24.8833 H   0  0  0  0  0  0
   28.0100   89.4260   23.7127 H   0  0  0  0  0  0
   29.0519   89.4340   25.1562 H   0  0  0  0  0  0
   24.2018   91.0478   30.5686 H   0  0  0  0  0  0
   23.5947   92.2130   33.9090 H   0  0  0  0  0  0
   23.7587   90.8795   32.8468 H   0  0  0  0  0  0
   26.4413   97.9434   26.7013 C   0  0  0  0  0  0
   26.0973   98.4491   25.7992 H   0  0  0  0  0  0
   27.2790   98.5125   27.1013 H   0  0  0  0  0  0
   26.7994   96.9545   26.4166 H   0  0  0  0  0  0
   25.3812   97.8586   27.6384 O   0  0  0  0  0  0
  1  2  1  0  0  0
  1 27  1  0  0  0
  1 28  1  0  0  0
  1 50  1  0  0  0
  2  3  1  0  0  0
  2 29  1  0  0  0
  2 30  1  0  0  0
  3  4  1  0  0  0
  4 24  1  0  0  0
  4  5  2  0  0  0
  5  6  1  0  0  0
  6  7  1  0  0  0
  6 21  2  0  0  0
  7  8  1  0  0  0
  7 31  1  0  0  0
  8  9  2  0  0  0
  8 10  1  0  0  0
 10 11  1  0  0  0
 10 32  1  0  0  0
 10 33  1  0  0  0
 11 18  1  0  0  0
 11 12  2  0  0  0
 12 13  1  0  0  0
 12 34  1  0  0  0
 13 14  1  0  0  0
 13 16  2  0  0  0
 14 15  1  0  0  0
 15 35  1  0  0  0
 15 36  1  0  0  0
 15 37  1  0  0  0
 16 17  1  0  0  0
 16 38  1  0  0  0
 17 18  2  0  0  0
 17 39  1  0  0  0
 18 19  1  0  0  0
 19 20  1  0  0  0
 20 40  1  0  0  0
 20 41  1  0  0  0
 20 42  1  0  0  0
 21 22  1  0  0  0
 21 43  1  0  0  0
 22 23  1  0  0  0
 22 24  2  0  0  0
 23 44  1  0  0  0
 23 45  1  0  0  0
 24 25  1  0  0  0
 25 26  3  0  0  0
 46 47  1  0  0  0
 46 48  1  0  0  0
 46 49  1  0  0  0
 46 50  1  0  0  0
M  END
> <Source File Index>
1

> <Ionization Penalty>
0

> <Source File Index>
1

> <State Penalty>
0

> <Tot Q>
0

> <entry id>
20095

> <i_f3d_flags>
0

> <subgroup collapsed>
0

> <tautomer probability>
1

> <docking score>
-8.21323

> <glide emodel>
-70.8053

> <glide gscore>
-8.21323

> <Source File>
Jnk1_18659-1.sdf

> <Source Path>
C:\Users\yujie\Desktop\FEPs\Jnk1

> <entry id>
20114

> <Source File>
Jnk1_18659_0.65.sdf

> <Source Path>
C:\Users\yujie\Desktop\FEPs

> <job name>
glide-dock_SP_FEP_Jnk1

> <subgroup title>
glide-dock_SP_FEP_Jnk1_pv

> <subgroupid>
glide-dock_SP_FEP_Jnk1_pv

$$$$
