UMP
                    3D
 Schrodinger Suite 2024-1.
 31 32  0  0  1  0            999 V2000
   14.7768   46.6467  -52.1285 N   0  0  0  0  0  0
   14.1555   45.7799  -51.2032 C   0  0  0  0  0  0
   13.6153   46.3644  -50.0597 N   0  0  0  0  0  0
   13.6391   47.7267  -49.7560 C   0  0  0  0  0  0
   14.2507   48.5692  -50.7751 C   0  0  0  0  0  0
   14.7827   48.0136  -51.8875 C   0  0  0  0  0  0
   14.0931   44.5595  -51.3518 O   0  0  0  0  0  0
   13.1859   48.1258  -48.6879 O   0  0  0  0  0  0
   15.4963   46.0865  -53.3312 C   0  0  2  0  0  0
   17.0083   46.2469  -53.1525 C   0  0  0  0  0  0
   17.4421   46.5599  -54.5610 C   0  0  2  0  0  0
   16.2709   47.3956  -55.0788 C   0  0  2  0  0  0
   17.5860   45.3652  -55.3027 O   0  0  0  0  0  0
   15.1177   46.8026  -54.4731 O   0  0  0  0  0  0
   16.1950   47.4804  -56.6093 C   0  0  0  0  0  0
   15.1870   48.4128  -56.9512 O   0  0  0  0  0  0
   15.3192   49.1864  -58.3824 P   0  0  0  0  0  0
   16.7559   49.1707  -58.8564 O   0  0  0  0  0  0
   14.7859   50.5752  -58.1031 O   0  5  0  0  0  0
   14.3861   48.4280  -59.3025 O   0  5  0  0  0  0
   13.1904   45.7551  -49.3789 H   0  0  0  0  0  0
   14.2906   49.6395  -50.6323 H   0  0  0  0  0  0
   15.2323   48.6756  -52.6131 H   0  0  0  0  0  0
   15.1927   45.0490  -53.4734 H   0  0  0  0  0  0
   17.4679   45.3650  -52.7125 H   0  0  0  0  0  0
   17.2268   47.0987  -52.5079 H   0  0  0  0  0  0
   18.3826   47.1116  -54.5888 H   0  0  0  0  0  0
   16.3708   48.4058  -54.6790 H   0  0  0  0  0  0
   18.4750   45.3650  -55.6529 H   0  0  0  0  0  0
   15.9858   46.5134  -57.0624 H   0  0  0  0  0  0
   17.1754   47.7912  -56.9677 H   0  0  0  0  0  0
  1  2  1  0  0  0
  1  6  1  0  0  0
  1  9  1  0  0  0
  2  3  1  0  0  0
  2  7  2  0  0  0
  3  4  1  0  0  0
  3 21  1  0  0  0
  4  5  1  0  0  0
  4  8  2  0  0  0
  5  6  2  0  0  0
  5 22  1  0  0  0
  6 23  1  0  0  0
  9 10  1  0  0  0
  9 14  1  0  0  0
  9 24  1  0  0  0
 10 11  1  0  0  0
 10 25  1  0  0  0
 10 26  1  0  0  0
 11 12  1  0  0  0
 11 13  1  0  0  0
 11 27  1  0  0  0
 12 14  1  0  0  0
 12 15  1  0  0  0
 12 28  1  0  0  0
 13 29  1  0  0  0
 15 16  1  0  0  0
 15 30  1  0  0  0
 15 31  1  0  0  0
 16 17  1  0  0  0
 17 18  2  0  0  0
 17 19  1  0  0  0
 17 20  1  0  0  0
M  CHG  2  19  -1  20  -1
M  END
> <i_epik_Tot_Q>
-2

> <i_epik_Tot_abs_Q>
2

> <i_f3d_flags>
0

> <i_i_glide_confnum>
90

> <i_i_glide_lignum>
3

> <i_i_glide_posenum>
37

> <i_i_glide_rotatable_bonds>
5

> <i_lp_mmshare_version>
65135

> <i_m_Source_File_Index>
1

> <i_m_source_file_index>
1

> <i_m_stars>
0

> <b_lp_Chiralities_Consistent>
1

> <b_m_subgroup_collapsed>
0

> <b_ppw_created_disulfur>
1

> <b_ppw_prepared>
1

> <r_epik_Charging_Adjusted_Penalty>
0.219387

> <r_epik_Ionization_Penalty>
0.1102

> <r_epik_Ionization_Penalty_Charging>
0.1102

> <r_epik_Ionization_Penalty_Neutral>
0

> <r_epik_State_Penalty>
0.1092

> <r_i_Bend_Energy-S-OPLS>
753.877

> <r_i_Dihedral_Energy-S-OPLS>
780.941

> <r_i_El-14_Energy-S-OPLS>
584.283

> <r_i_Electrostatic_Energy-S-OPLS>
-1722.46

> <r_i_LJ-14_Energy-S-OPLS>
1569.01

> <r_i_Max_Derivative-S-OPLS>
3.0871

> <r_i_Potential_Energy-S-OPLS>
-760.827

> <r_i_RMS_Derivative-S-OPLS>
0.120057

> <r_i_Stretch_Energy-S-OPLS>
144.502

> <r_i_Van_der_Waals_Energy-S-OPLS>
-3001.73

> <r_i_docking_score>
-6.78496

> <r_i_glide_ecoul>
-19.4296

> <r_i_glide_eff_state_penalty>
0.1092

> <r_i_glide_einternal>
10.3948

> <r_i_glide_emodel>
-72.4072

> <r_i_glide_energy>
-41.359

> <r_i_glide_erotb>
0.591054

> <r_i_glide_esite>
-0.0893945

> <r_i_glide_evdw>
-21.9294

> <r_i_glide_gscore>
-6.89416

> <r_i_glide_hbond>
-0.943807

> <r_i_glide_ligand_efficiency>
-0.339248

> <r_i_glide_ligand_efficiency_ln>
-1.69805

> <r_i_glide_ligand_efficiency_sa>
-0.920861

> <r_i_glide_lipo>
-0.419121

> <r_i_glide_metal>
0

> <r_i_glide_rewards>
-2.02197

> <r_i_target_temperature>
298

> <r_lp_Energy>
9.44254

> <r_lp_tautomer_probability>
0.999537

> <r_ppw_preprocess_pH>
7.4

> <s_epik_Chemistry_Notes>
This compound contains an acetal/aminal-like group ( X-CH(R)-Y where X, Y are N, S, or O) that may be acid/base labile, releasing an aldehyde.

> <s_epik_cmdline>
J2VwaWtfcHl0aG9uJywgJy1waCcsICc3LjAnLCAnLXRuJywgJzgnLCAnLW1hJywgJzUwMCcsICctaW1hZScsICc8aW5maWxlLm1hZT4nLCAnLW9tYWUnLCAnPG91dGZpbGUubWFlPic=

> <s_epik_input>
W2NIXTFbY0hdYyg9TylbbkhdYyg9TyluMVtDQEBIXTJbQ0gyXVtDQEhdKFtPSF0pW0NASF0oTzIpW0NIMl1PUCg9TykoW09IXSlbT0hd

> <s_i_glide_gridfile>
glide-grid_P00469_N229S

> <s_lp_Force_Field>
S-OPLS

> <s_lp_Variant>
UMP-3

> <s_m_Source_File>
glide-dock_SP_P00469_MT_N229S_pv.maegz

> <s_m_Source_Path>
D:\project\glide-dock_SP_P00469_MT_N229S

> <s_m_entry_id>
19885

> <s_m_entry_name>
Structure19562

> <s_m_job_name>
glide-dock_SP_P00469_MT_N229S

> <s_m_source_file>
ligprep_UMP.maegz

> <s_m_subgroup_title>
glide-dock_SP_P00469_MT_N229S_pv

> <s_m_subgroupid>
glide-dock_SP_P00469_MT_N229S_pv

> <s_pdb_PDB_format_version>
3.0

> <s_ppw_het_states>
eJztlF1qhDAYRbciebaSxMSfbmUYRKaZqZBqiU6hiHvvZ1J71cdSGCi+yMkxMcnl4siqD+P6pmsr9hxlWqQ6jsjV9m5mMzJBz9PILq+1u5l+HpykLnkc8XMczSiAEpgCFVADM2AOLIDlghnnQAGUwBSogBqYAXNgAfS7EbPOvVAgq3uGK4rvUwWh96KAEF7IvaATSMQUEhIIK+S0FTmWqGVbiaBCRmIlfBAC+YXoBFIMAW6FhBDbbyxCQSgvNIT2IoPIvPg5+iKK/Qx/9Dnwd9PWdvikxItEcU0T2ZsZaluFF40v3TiR7i+dMzRo79bSsGmvXdUPbmX6qnPNraF1JK+17Q2t+7/lfVoiLT0f9X1ofXnCtTra+6v2Hv/eB5dXJJrr9I/be56mL6456TY=

> <s_ppw_prepared_with_version>
2024-1

$$$$
