UMP
                    3D
 Schrodinger Suite 2024-1.
 31 32  0  0  1  0            999 V2000
   15.0304   46.9333  -52.6910 N   0  0  0  0  0  0
   14.4634   45.9379  -51.8747 C   0  0  0  0  0  0
   13.8244   46.3555  -50.7142 N   0  0  0  0  0  0
   13.7181   47.6739  -50.2800 C   0  0  0  0  0  0
   14.3712   48.6518  -51.1418 C   0  0  0  0  0  0
   14.9878   48.2555  -52.2803 C   0  0  0  0  0  0
   14.5173   44.7420  -52.1465 O   0  0  0  0  0  0
   13.1037   47.9342  -49.2467 O   0  0  0  0  0  0
   15.6927   46.5470  -53.9917 C   0  0  2  0  0  0
   17.2057   46.4604  -53.8271 C   0  0  0  0  0  0
   17.6693   46.8799  -55.2007 C   0  0  2  0  0  0
   16.6514   47.9662  -55.5662 C   0  0  2  0  0  0
   17.5875   45.7869  -56.1050 O   0  0  0  0  0  0
   15.4306   47.5263  -54.9576 O   0  0  0  0  0  0
   16.5195   48.2136  -57.0764 C   0  0  0  0  0  0
   15.7462   49.3685  -57.2869 O   0  0  0  0  0  0
   15.3004   49.5620  -58.7993 P   0  0  0  0  0  0
   16.4782   49.6050  -59.7254 O   0  0  0  0  0  0
   14.5175   50.8426  -58.7660 O   0  5  0  0  0  0
   14.3376   48.4320  -59.1049 O   0  5  0  0  0  0
   13.4270   45.6440  -50.1212 H   0  0  0  0  0  0
   14.3486   49.6962  -50.8706 H   0  0  0  0  0  0
   15.4511   49.0082  -52.9018 H   0  0  0  0  0  0
   15.2418   45.6148  -54.3371 H   0  0  0  0  0  0
   17.5297   45.4698  -53.5159 H   0  0  0  0  0  0
   17.5346   47.1852  -53.0818 H   0  0  0  0  0  0
   18.6905   47.2658  -55.1918 H   0  0  0  0  0  0
   16.9451   48.8945  -55.0732 H   0  0  0  0  0  0
   17.9233   46.1143  -56.9413 H   0  0  0  0  0  0
   16.0771   47.3515  -57.5757 H   0  0  0  0  0  0
   17.4998   48.3779  -57.5282 H   0  0  0  0  0  0
  1  2  1  0  0  0
  1  6  1  0  0  0
  1  9  1  0  0  0
  2  3  1  0  0  0
  2  7  2  0  0  0
  3  4  1  0  0  0
  3 21  1  0  0  0
  4  5  1  0  0  0
  4  8  2  0  0  0
  5  6  2  0  0  0
  5 22  1  0  0  0
  6 23  1  0  0  0
  9 10  1  0  0  0
  9 14  1  0  0  0
  9 24  1  0  0  0
 10 11  1  0  0  0
 10 25  1  0  0  0
 10 26  1  0  0  0
 11 12  1  0  0  0
 11 13  1  0  0  0
 11 27  1  0  0  0
 12 14  1  0  0  0
 12 15  1  0  0  0
 12 28  1  0  0  0
 13 29  1  0  0  0
 15 16  1  0  0  0
 15 30  1  0  0  0
 15 31  1  0  0  0
 16 17  1  0  0  0
 17 18  2  0  0  0
 17 19  1  0  0  0
 17 20  1  0  0  0
M  CHG  2  19  -1  20  -1
M  END
> <Tot Q>
-2

> <Source File Index>
1

> <stars>
0

> <i_f3d_flags>
0

> <subgroup collapsed>
0

> <prepared>
1

> <Ionization Penalty>
0.1102

> <State Penalty>
0.1092

> <Potential Energy-S-OPLS>
-760.827

> <docking score>
-6.81715

> <glide emodel>
-74.3403

> <glide gscore>
-6.92635

> <tautomer probability>
0.999537

> <Source File>
MT_1THY_N229C_ligand.sdf

> <Source Path>
C:\Users\yujie\Desktop\res\case\P00469\P00469

> <entry id>
24

> <subgroup title>
glide-dock_SP_P00469_MT_N229C_pv

> <subgroupid>
glide-dock_SP_P00469_MT_N229C_pv

$$$$
