UMP
                    3D
 Schrodinger Suite 2024-1.
 31 32  0  0  1  0            999 V2000
   14.7922   46.4360  -52.1190 N   0  0  0  0  0  0
   14.2549   45.3874  -51.3438 C   0  0  0  0  0  0
   13.6389   45.7160  -50.1438 N   0  0  0  0  0  0
   13.5186   47.0108  -49.6444 C   0  0  0  0  0  0
   14.0582   48.0599  -50.5052 C   0  0  0  0  0  0
   14.6573   47.7420  -51.6772 C   0  0  0  0  0  0
   14.3176   44.2098  -51.6716 O   0  0  0  0  0  0
   12.9941   47.1875  -48.5474 O   0  0  0  0  0  0
   15.5795   46.1310  -53.3825 C   0  0  2  0  0  0
   17.0796   46.2586  -53.1306 C   0  0  0  0  0  0
   17.5713   46.6050  -54.5180 C   0  0  2  0  0  0
   16.4590   47.5619  -54.9852 C   0  0  2  0  0  0
   17.6886   45.4281  -55.3115 O   0  0  0  0  0  0
   15.2550   47.0538  -54.3835 O   0  0  0  0  0  0
   16.3655   47.8074  -56.5036 C   0  0  0  0  0  0
   15.5813   48.9663  -56.7076 O   0  0  0  0  0  0
   15.2948   49.3607  -58.2300 P   0  0  0  0  0  0
   14.2021   48.4189  -58.6856 O   0  0  0  0  0  0
   16.5257   49.2260  -59.0835 O   0  5  0  0  0  0
   14.7054   50.7527  -58.1767 O   0  5  0  0  0  0
   13.2556   44.9429  -49.5998 H   0  0  0  0  0  0
   13.9893   49.0932  -50.1979 H   0  0  0  0  0  0
   15.0521   48.5424  -52.2889 H   0  0  0  0  0  0
   15.2922   45.1407  -53.7375 H   0  0  0  0  0  0
   17.5091   45.3633  -52.6892 H   0  0  0  0  0  0
   17.2662   47.0921  -52.4535 H   0  0  0  0  0  0
   18.5411   47.1045  -54.4886 H   0  0  0  0  0  0
   16.6521   48.5250  -54.5092 H   0  0  0  0  0  0
   18.5749   45.4413  -55.6870 H   0  0  0  0  0  0
   15.9548   46.9477  -57.0286 H   0  0  0  0  0  0
   17.3580   47.9918  -56.9186 H   0  0  0  0  0  0
  1  2  1  0  0  0
  1  6  1  0  0  0
  1  9  1  0  0  0
  2  3  1  0  0  0
  2  7  2  0  0  0
  3  4  1  0  0  0
  3 21  1  0  0  0
  4  5  1  0  0  0
  4  8  2  0  0  0
  5  6  2  0  0  0
  5 22  1  0  0  0
  6 23  1  0  0  0
  9 10  1  0  0  0
  9 14  1  0  0  0
  9 24  1  0  0  0
 10 11  1  0  0  0
 10 25  1  0  0  0
 10 26  1  0  0  0
 11 12  1  0  0  0
 11 13  1  0  0  0
 11 27  1  0  0  0
 12 14  1  0  0  0
 12 15  1  0  0  0
 12 28  1  0  0  0
 13 29  1  0  0  0
 15 16  1  0  0  0
 15 30  1  0  0  0
 15 31  1  0  0  0
 16 17  1  0  0  0
 17 18  2  0  0  0
 17 19  1  0  0  0
 17 20  1  0  0  0
M  CHG  2  19  -1  20  -1
M  END
> <Tot Q>
-2

> <Source File Index>
1

> <stars>
0

> <i_f3d_flags>
0

> <subgroup collapsed>
0

> <prepared>
1

> <Ionization Penalty>
0.1102

> <State Penalty>
0.1092

> <Potential Energy-S-OPLS>
-760.827

> <docking score>
-7.55421

> <glide emodel>
-78.2114

> <glide gscore>
-7.66341

> <tautomer probability>
0.999537

> <Source File>
WT_1THY_ligand.sdf

> <Source Path>
C:\Users\yujie\Desktop\res\case\P00469

> <entry id>
5

> <subgroup title>
glide-dock_SP_P00469_WT_pv

> <subgroupid>
glide-dock_SP_P00469_WT_pv

$$$$
