lig51
                    3D
 Schrodinger Suite 2020-3.
 58 60  0  0  1  0            999 V2000
   14.5494    9.0794  -21.9283 C   0  0  0  0  0  0
   13.1449    8.9006  -21.7759 O   0  0  0  0  0  0
   12.6349    8.5051  -20.5509 C   0  0  0  0  0  0
   13.4330    8.2521  -19.4217 C   0  0  0  0  0  0
   12.8578    7.8734  -18.2114 C   0  0  0  0  0  0
   11.4703    7.7466  -18.0986 C   0  0  0  0  0  0
   10.8718    7.3448  -16.8804 N   0  0  0  0  0  0
    9.8467    6.2787  -16.8798 C   0  0  0  0  0  0
   10.3348    4.9479  -17.4353 C   0  0  0  0  0  0
   10.1624    4.6317  -18.7877 C   0  0  0  0  0  0
   10.5867    3.3959  -19.2785 C   0  0  0  0  0  0
   11.1736    2.4673  -18.4187 C   0  0  0  0  0  0
   11.3367    2.7734  -17.0679 C   0  0  0  0  0  0
   11.8955    1.8691  -16.2306 F   0  0  0  0  0  0
   10.9184    4.0101  -16.5773 C   0  0  0  0  0  0
   10.9594    8.0823  -15.7316 C   0  0  0  0  0  0
   12.1927    7.8159  -14.6293 S   0  0  0  0  0  0
    9.9536    8.9968  -15.5986 N   0  0  0  0  0  0
    9.8001    9.9437  -14.4885 C   0  0  0  0  0  0
   10.5226   11.2872  -14.7040 C   0  0  0  0  0  0
   10.2227   12.2821  -13.5634 C   0  0  0  0  0  0
   10.7044   13.6266  -13.8528 N   0  0  0  0  0  0
   11.8191   14.2304  -13.3257 C   0  0  0  0  0  0
   11.9524   15.4747  -13.7087 N   0  0  0  0  0  0
   10.9338   15.7008  -14.5128 C   0  0  0  0  0  0
   10.1133   14.5878  -14.6461 C   0  0  0  0  0  0
    8.8163   14.3815  -15.3956 C   0  0  0  0  0  0
   10.6715    8.0162  -19.2168 C   0  0  0  0  0  0
   11.2402    8.3820  -20.4484 C   0  0  0  0  0  0
   10.4941    8.6415  -21.5855 O   0  0  0  0  0  0
    9.0741    8.5423  -21.5336 C   0  0  0  0  0  0
   14.7625    9.4021  -22.9474 H   0  0  0  0  0  0
   14.9358    9.8475  -21.2535 H   0  0  0  0  0  0
   15.0904    8.1469  -21.7580 H   0  0  0  0  0  0
   14.5060    8.3470  -19.4630 H   0  0  0  0  0  0
   13.4976    7.6734  -17.3648 H   0  0  0  0  0  0
    9.4529    6.0887  -15.8770 H   0  0  0  0  0  0
    8.9848    6.6102  -17.4604 H   0  0  0  0  0  0
    9.7123    5.3443  -19.4656 H   0  0  0  0  0  0
   10.4605    3.1593  -20.3253 H   0  0  0  0  0  0
   11.4979    1.5079  -18.7941 H   0  0  0  0  0  0
   11.0529    4.2375  -15.5305 H   0  0  0  0  0  0
    9.3495    9.1339  -16.3939 H   0  0  0  0  0  0
   10.0761    9.5031  -13.5294 H   0  0  0  0  0  0
    8.7343   10.1395  -14.3782 H   0  0  0  0  0  0
   10.2169   11.7071  -15.6631 H   0  0  0  0  0  0
   11.5988   11.1213  -14.7698 H   0  0  0  0  0  0
   10.6529   11.9396  -12.6214 H   0  0  0  0  0  0
    9.1520   12.3636  -13.3852 H   0  0  0  0  0  0
   12.4426   13.6830  -12.6315 H   0  0  0  0  0  0
   10.7559   16.6697  -14.9647 H   0  0  0  0  0  0
    8.5401   15.2680  -15.9697 H   0  0  0  0  0  0
    7.9858   14.1786  -14.7181 H   0  0  0  0  0  0
    8.8712   13.5475  -16.0924 H   0  0  0  0  0  0
    9.6001    7.9371  -19.1211 H   0  0  0  0  0  0
    8.6627    8.7706  -22.5146 H   0  0  0  0  0  0
    8.7529    7.5340  -21.2680 H   0  0  0  0  0  0
    8.6410    9.2578  -20.8315 H   0  0  0  0  0  0
  1  2  1  0  0  0
  1 32  1  0  0  0
  1 33  1  0  0  0
  1 34  1  0  0  0
  2  3  1  0  0  0
  3 29  1  0  0  0
  3  4  2  0  0  0
  4  5  1  0  0  0
  4 35  1  0  0  0
  5  6  2  0  0  0
  5 36  1  0  0  0
  6  7  1  0  0  0
  6 28  1  0  0  0
  7  8  1  0  0  0
  7 16  1  0  0  0
  8  9  1  0  0  0
  8 37  1  0  0  0
  8 38  1  0  0  0
  9 15  1  0  0  0
  9 10  2  0  0  0
 10 11  1  0  0  0
 10 39  1  0  0  0
 11 12  2  0  0  0
 11 40  1  0  0  0
 12 13  1  0  0  0
 12 41  1  0  0  0
 13 14  1  0  0  0
 13 15  2  0  0  0
 15 42  1  0  0  0
 16 17  2  0  0  0
 16 18  1  0  0  0
 18 19  1  0  0  0
 18 43  1  0  0  0
 19 20  1  0  0  0
 19 44  1  0  0  0
 19 45  1  0  0  0
 20 21  1  0  0  0
 20 46  1  0  0  0
 20 47  1  0  0  0
 21 22  1  0  0  0
 21 48  1  0  0  0
 21 49  1  0  0  0
 22 26  1  0  0  0
 22 23  1  0  0  0
 23 24  2  0  0  0
 23 50  1  0  0  0
 24 25  1  0  0  0
 25 26  2  0  0  0
 25 51  1  0  0  0
 26 27  1  0  0  0
 27 52  1  0  0  0
 27 53  1  0  0  0
 27 54  1  0  0  0
 28 29  2  0  0  0
 28 55  1  0  0  0
 29 30  1  0  0  0
 30 31  1  0  0  0
 31 56  1  0  0  0
 31 57  1  0  0  0
 31 58  1  0  0  0
M  END
> <s_m_source_file>
/home/user-home/yujie/0_PBCNetv2/data/0_0_high_sim/0_noncov/Sries53165/ligprep_input.csv

> <i_m_source_file_index>
52

> <i_lp_mmshare_version>
51139

> <i_f3d_flags>
0

> <s_epik_input>
RmMoW2NIXTEpW2NIXVtjSF1bY0hdYzFbQ0gyXU4oYyhbY0hdYzJPW0NIM10pW2NIXVtjSF1jMk9bQ0gzXSlDKD1TKVtOSF1bQ0gyXVtDSDJdW0NIMl1uM1tjSF1uW2NIXWMzW0NIM10=

> <s_epik_cmdline>
J2VwaWtfcHl0aG9uJywgJy1waHQnLCAnMi4wJywgJy1waCcsICc3LjQnLCAnLXRuJywgJzgnLCAnLW1hJywgJzIwMCcsICctaW1hZScsICc8aW5maWxlLm1hZT4nLCAnLW9tYWUnLCAnPG91dGZpbGUubWFlPic=

> <r_lp_tautomer_probability>
1

> <r_epik_Ionization_Penalty>
  0.4915

> <r_epik_Ionization_Penalty_Charging>
  0.4915

> <r_epik_Ionization_Penalty_Neutral>
  0.0000

> <r_epik_State_Penalty>
  0.4972

> <r_epik_Charging_Adjusted_Penalty>
0.988678

> <i_epik_Tot_Q>
0

> <i_epik_Tot_abs_Q>
0

> <s_lp_Force_Field>
OPLS3e

> <r_lp_Energy>
55.8271

> <b_lp_Chiralities_Consistent>
1

> <s_lp_Variant>
lig51-2

> <s_i_glide_gridfile>
Sries53165-001-gridgen

> <i_i_glide_lignum>
125

> <i_i_glide_rotatable_bonds>
11

> <r_i_docking_score>
-3.50004591439635

> <r_i_glide_ligand_efficiency>
-0.112904706916011

> <r_i_glide_ligand_efficiency_sa>
-0.354676661463894

> <r_i_glide_ligand_efficiency_ln>
-0.789367617221792

> <r_i_glide_gscore>
-3.99726691439635

> <r_i_glide_lipo>
-0.82076904490294

> <r_i_glide_hbond>
0

> <r_i_glide_metal>
-1.73329714339546

> <r_i_glide_rewards>
0.309678089486272

> <r_i_glide_evdw>
-36.9693717956543

> <r_i_glide_ecoul>
-4.24262809753418

> <r_i_glide_erotb>
0.918344480874407

> <r_i_glide_esite>
-0.186360492045788

> <r_i_glide_emodel>
-46.7598957008735

> <r_i_glide_energy>
-41.2119998931885

> <r_i_glide_einternal>
9.05262660980225

> <i_i_glide_confnum>
256

> <i_i_glide_posenum>
244

> <r_i_glide_eff_state_penalty>
0.497221

$$$$
