lig46
                    3D
 Schrodinger Suite 2024-1.
 57 59  0  0  1  0            999 V2000
    9.7344    8.4108  -22.4853 C   0  0  0  0  0  0
   10.9426    8.2575  -21.7447 O   0  0  0  0  0  0
   10.8796    8.0236  -20.3813 C   0  0  0  0  0  0
    9.6754    7.9625  -19.6595 C   0  0  0  0  0  0
    9.6816    7.7053  -18.2901 C   0  0  0  0  0  0
   10.8845    7.4997  -17.6126 C   0  0  0  0  0  0
   10.8576    7.1497  -16.2418 N   0  0  0  0  0  0
   11.2408    5.7383  -15.9671 C   0  0  0  0  0  0
   10.2967    4.7009  -16.5714 C   0  0  0  0  0  0
   10.7841    3.7321  -17.4564 C   0  0  0  0  0  0
    9.8903    2.8036  -17.9942 C   0  0  0  0  0  0
    8.5665    2.7925  -17.6929 N   0  0  0  0  0  0
    8.1085    3.7337  -16.8291 C   0  0  0  0  0  0
    8.9331    4.7002  -16.2520 C   0  0  0  0  0  0
   10.4238    8.0071  -15.2355 C   0  0  0  0  0  0
    9.9521    7.4964  -13.7006 S   0  0  0  0  0  0
   10.4231    9.3349  -15.5894 N   0  0  0  0  0  0
    9.7684   10.4470  -14.8784 C   0  0  0  0  0  0
   10.5085   11.0064  -13.6498 C   0  0  0  0  0  0
    9.9521   12.3712  -13.1802 C   0  0  0  0  0  0
   10.6765   13.4794  -13.7692 N   0  0  0  0  0  0
   11.9509   13.8589  -13.4416 C   0  0  0  0  0  0
   12.3521   14.9056  -14.1018 N   0  0  0  0  0  0
   11.3263   15.2517  -14.8556 C   0  0  0  0  0  0
   10.2532   14.3836  -14.7193 C   0  0  0  0  0  0
    8.8825   14.3718  -15.3572 C   0  0  0  0  0  0
   12.0887    7.5571  -18.3187 C   0  0  0  0  0  0
   12.0891    7.8251  -19.6907 C   0  0  0  0  0  0
   13.2945    7.8404  -20.3475 O   0  0  0  0  0  0
   13.7913    9.1412  -20.6278 C   0  0  0  0  0  0
    9.9726    8.5061  -23.5443 H   0  0  0  0  0  0
    9.0805    7.5436  -22.3808 H   0  0  0  0  0  0
    9.1911    9.3073  -22.1827 H   0  0  0  0  0  0
    8.7227    8.1093  -20.1451 H   0  0  0  0  0  0
    8.7517    7.6391  -17.7494 H   0  0  0  0  0  0
   12.2361    5.5843  -16.3866 H   0  0  0  0  0  0
   11.3748    5.5044  -14.9119 H   0  0  0  0  0  0
   11.8295    3.7021  -17.7284 H   0  0  0  0  0  0
   10.2323    2.0460  -18.6844 H   0  0  0  0  0  0
    7.0546    3.7046  -16.5959 H   0  0  0  0  0  0
    8.5182    5.4285  -15.5713 H   0  0  0  0  0  0
   10.8180    9.5617  -16.4910 H   0  0  0  0  0  0
    8.7448   10.1995  -14.6051 H   0  0  0  0  0  0
    9.6624   11.2497  -15.6094 H   0  0  0  0  0  0
   11.5812   11.0610  -13.8421 H   0  0  0  0  0  0
   10.4036   10.3052  -12.8219 H   0  0  0  0  0  0
   10.0485   12.4651  -12.1008 H   0  0  0  0  0  0
    8.8902   12.5055  -13.3847 H   0  0  0  0  0  0
   12.5000   13.3051  -12.6938 H   0  0  0  0  0  0
   11.3358   16.1306  -15.4886 H   0  0  0  0  0  0
    8.7695   15.1749  -16.0870 H   0  0  0  0  0  0
    8.0960   14.5166  -14.6176 H   0  0  0  0  0  0
    8.6761   13.4342  -15.8713 H   0  0  0  0  0  0
   13.0274    7.3832  -17.8131 H   0  0  0  0  0  0
   14.7492    9.0614  -21.1420 H   0  0  0  0  0  0
   13.1154    9.7050  -21.2723 H   0  0  0  0  0  0
   13.9551    9.7056  -19.7082 H   0  0  0  0  0  0
  1  2  1  0  0  0
  1 31  1  0  0  0
  1 32  1  0  0  0
  1 33  1  0  0  0
  2  3  1  0  0  0
  3 28  1  0  0  0
  3  4  2  0  0  0
  4  5  1  0  0  0
  4 34  1  0  0  0
  5  6  2  0  0  0
  5 35  1  0  0  0
  6  7  1  0  0  0
  6 27  1  0  0  0
  7  8  1  0  0  0
  7 15  1  0  0  0
  8  9  1  0  0  0
  8 36  1  0  0  0
  8 37  1  0  0  0
  9 14  1  0  0  0
  9 10  2  0  0  0
 10 11  1  0  0  0
 10 38  1  0  0  0
 11 12  2  0  0  0
 11 39  1  0  0  0
 12 13  1  0  0  0
 13 14  2  0  0  0
 13 40  1  0  0  0
 14 41  1  0  0  0
 15 16  2  0  0  0
 15 17  1  0  0  0
 17 18  1  0  0  0
 17 42  1  0  0  0
 18 19  1  0  0  0
 18 43  1  0  0  0
 18 44  1  0  0  0
 19 20  1  0  0  0
 19 45  1  0  0  0
 19 46  1  0  0  0
 20 21  1  0  0  0
 20 47  1  0  0  0
 20 48  1  0  0  0
 21 25  1  0  0  0
 21 22  1  0  0  0
 22 23  2  0  0  0
 22 49  1  0  0  0
 23 24  1  0  0  0
 24 25  2  0  0  0
 24 50  1  0  0  0
 25 26  1  0  0  0
 26 51  1  0  0  0
 26 52  1  0  0  0
 26 53  1  0  0  0
 27 28  2  0  0  0
 27 54  1  0  0  0
 28 29  1  0  0  0
 29 30  1  0  0  0
 30 55  1  0  0  0
 30 56  1  0  0  0
 30 57  1  0  0  0
M  END
> <Tot Q>
0

> <Source File Index>
2230

> <i_f3d_flags>
0

> <subgroup collapsed>
0

> <Ionization Penalty>
0.51

> <State Penalty>
0.5119

> <docking score>
-3.62133

> <glide emodel>
-50.1049

> <glide gscore>
-4.1332

> <tautomer probability>
1

> <Source File>
Sries53165_dock_SP_confgen_100_lib.maegz

> <Source Path>
C:\Users\yujie\Desktop\two_s\data

> <entry id>
73359

> <subgroup title>
Sries53165_dock_SP_confgen_100_lib

> <subgroupid>
Sries53165_dock_SP_confgen_100_lib

$$$$
