lig48
                    3D
 Schrodinger Suite 2024-1.
 58 60  0  0  1  0            999 V2000
   10.3565    8.4011  -22.7224 C   0  0  0  0  0  0
   11.3537    8.3963  -21.7062 O   0  0  0  0  0  0
   11.0132    8.0456  -20.4103 C   0  0  0  0  0  0
    9.7227    7.6391  -20.0358 C   0  0  0  0  0  0
    9.4344    7.3227  -18.7122 C   0  0  0  0  0  0
   10.4166    7.4226  -17.7265 C   0  0  0  0  0  0
   10.0921    7.1381  -16.3710 N   0  0  0  0  0  0
    9.5573    5.7633  -16.1376 C   0  0  0  0  0  0
   10.5799    4.6608  -16.3768 C   0  0  0  0  0  0
   10.7584    4.1388  -17.6608 C   0  0  0  0  0  0
   11.6784    3.1146  -17.8706 C   0  0  0  0  0  0
   12.4086    2.6079  -16.7946 C   0  0  0  0  0  0
   13.5516    1.3416  -17.0573 Cl  0  0  0  0  0  0
   12.2230    3.1177  -15.5112 C   0  0  0  0  0  0
   11.3051    4.1439  -15.3014 C   0  0  0  0  0  0
   10.2414    8.0490  -15.3241 C   0  0  0  0  0  0
    9.9519    7.6923  -13.7006 S   0  0  0  0  0  0
   10.6437    9.3069  -15.7115 N   0  0  0  0  0  0
   10.8042   10.5054  -14.8649 C   0  0  0  0  0  0
    9.5234   11.3567  -14.7616 C   0  0  0  0  0  0
    9.5834   12.4953  -13.7152 C   0  0  0  0  0  0
   10.5038   13.5689  -14.0755 N   0  0  0  0  0  0
   11.7846   13.7505  -13.6132 C   0  0  0  0  0  0
   12.3519   14.8419  -14.0608 N   0  0  0  0  0  0
   11.4304   15.3982  -14.8272 C   0  0  0  0  0  0
   10.2668   14.6462  -14.8993 C   0  0  0  0  0  0
    8.9546   14.8873  -15.6083 C   0  0  0  0  0  0
   11.7151    7.7820  -18.0998 C   0  0  0  0  0  0
   12.0214    8.1050  -19.4347 C   0  0  0  0  0  0
   13.2816    8.5018  -19.8496 O   0  0  0  0  0  0
   14.3319    8.6162  -18.8971 C   0  0  0  0  0  0
   10.8069    8.6899  -23.6729 H   0  0  0  0  0  0
    9.9174    7.4103  -22.8605 H   0  0  0  0  0  0
    9.5644    9.1175  -22.4988 H   0  0  0  0  0  0
    8.9248    7.5719  -20.7585 H   0  0  0  0  0  0
    8.4338    7.0115  -18.4551 H   0  0  0  0  0  0
    9.1018    5.6040  -15.1628 H   0  0  0  0  0  0
    8.7187    5.5909  -16.8112 H   0  0  0  0  0  0
   10.1893    4.5311  -18.4892 H   0  0  0  0  0  0
   11.8271    2.7124  -18.8631 H   0  0  0  0  0  0
   12.7864    2.7185  -14.6793 H   0  0  0  0  0  0
   11.1642    4.5404  -14.3060 H   0  0  0  0  0  0
   10.7512    9.4585  -16.7050 H   0  0  0  0  0  0
   11.6039   11.1226  -15.2706 H   0  0  0  0  0  0
   11.1697   10.2451  -13.8715 H   0  0  0  0  0  0
    8.6880   10.7050  -14.5015 H   0  0  0  0  0  0
    9.2728   11.7677  -15.7392 H   0  0  0  0  0  0
    9.8874   12.1023  -12.7447 H   0  0  0  0  0  0
    8.5983   12.9359  -13.5565 H   0  0  0  0  0  0
   12.2044   13.0355  -12.9219 H   0  0  0  0  0  0
   11.5644   16.3590  -15.3079 H   0  0  0  0  0  0
    9.0425   15.6544  -16.3786 H   0  0  0  0  0  0
    8.1834   15.2248  -14.9139 H   0  0  0  0  0  0
    8.5813   13.9867  -16.0928 H   0  0  0  0  0  0
   12.4753    7.8187  -17.3349 H   0  0  0  0  0  0
   15.2261    8.9969  -19.3884 H   0  0  0  0  0  0
   14.0704    9.3116  -18.0997 H   0  0  0  0  0  0
   14.5793    7.6461  -18.4632 H   0  0  0  0  0  0
  1  2  1  0  0  0
  1 32  1  0  0  0
  1 33  1  0  0  0
  1 34  1  0  0  0
  2  3  1  0  0  0
  3 29  1  0  0  0
  3  4  2  0  0  0
  4  5  1  0  0  0
  4 35  1  0  0  0
  5  6  2  0  0  0
  5 36  1  0  0  0
  6  7  1  0  0  0
  6 28  1  0  0  0
  7  8  1  0  0  0
  7 16  1  0  0  0
  8  9  1  0  0  0
  8 37  1  0  0  0
  8 38  1  0  0  0
  9 15  1  0  0  0
  9 10  2  0  0  0
 10 11  1  0  0  0
 10 39  1  0  0  0
 11 12  2  0  0  0
 11 40  1  0  0  0
 12 13  1  0  0  0
 12 14  1  0  0  0
 14 15  2  0  0  0
 14 41  1  0  0  0
 15 42  1  0  0  0
 16 17  2  0  0  0
 16 18  1  0  0  0
 18 19  1  0  0  0
 18 43  1  0  0  0
 19 20  1  0  0  0
 19 44  1  0  0  0
 19 45  1  0  0  0
 20 21  1  0  0  0
 20 46  1  0  0  0
 20 47  1  0  0  0
 21 22  1  0  0  0
 21 48  1  0  0  0
 21 49  1  0  0  0
 22 26  1  0  0  0
 22 23  1  0  0  0
 23 24  2  0  0  0
 23 50  1  0  0  0
 24 25  1  0  0  0
 25 26  2  0  0  0
 25 51  1  0  0  0
 26 27  1  0  0  0
 27 52  1  0  0  0
 27 53  1  0  0  0
 27 54  1  0  0  0
 28 29  2  0  0  0
 28 55  1  0  0  0
 29 30  1  0  0  0
 30 31  1  0  0  0
 31 56  1  0  0  0
 31 57  1  0  0  0
 31 58  1  0  0  0
M  END
> <Tot Q>
0

> <Source File Index>
1577

> <i_f3d_flags>
0

> <subgroup collapsed>
0

> <Ionization Penalty>
0.4915

> <State Penalty>
0.4972

> <docking score>
-3.95232

> <glide emodel>
-53.4315

> <glide gscore>
-4.44954

> <tautomer probability>
1

> <Source File>
Sries53165_dock_SP_confgen_100_lib.maegz

> <Source Path>
C:\Users\yujie\Desktop\two_s\data

> <entry id>
72706

> <subgroup title>
Sries53165_dock_SP_confgen_100_lib

> <subgroupid>
Sries53165_dock_SP_confgen_100_lib

$$$$
