lig50
                    3D
 Schrodinger Suite 2023-4.
 58 60  0  0  1  0            999 V2000
   14.4953    9.1131  -21.3650 C   0  0  0  0  0  0
   13.1202    8.7442  -21.3448 O   0  0  0  0  0  0
   12.5126    8.4418  -20.1371 C   0  0  0  0  0  0
   13.2043    8.3768  -18.9171 C   0  0  0  0  0  0
   12.5294    8.1144  -17.7274 C   0  0  0  0  0  0
   11.1396    7.9210  -17.7148 C   0  0  0  0  0  0
   10.4212    7.7650  -16.4879 N   0  0  0  0  0  0
    9.1088    7.0695  -16.4569 C   0  0  0  0  0  0
    9.0688    5.6894  -17.1122 C   0  0  0  0  0  0
    7.9424    5.3075  -17.8478 C   0  0  0  0  0  0
    7.8883    4.0548  -18.4595 C   0  0  0  0  0  0
    8.9660    3.1766  -18.3432 C   0  0  0  0  0  0
   10.0956    3.5500  -17.6126 C   0  0  0  0  0  0
   11.4289    2.4655  -17.4653 Cl  0  0  0  0  0  0
   10.1465    4.8013  -16.9995 C   0  0  0  0  0  0
   10.8408    8.3029  -15.2954 C   0  0  0  0  0  0
   11.3693    7.3165  -14.0434 S   0  0  0  0  0  0
   10.8019    9.6718  -15.2653 N   0  0  0  0  0  0
   11.3765   10.5123  -14.2038 C   0  0  0  0  0  0
   10.3343   11.1894  -13.2897 C   0  0  0  0  0  0
    9.6409   12.4435  -13.8863 C   0  0  0  0  0  0
   10.5531   13.5557  -14.1762 N   0  0  0  0  0  0
   11.8163   13.7887  -13.6789 C   0  0  0  0  0  0
   12.3516   14.9047  -14.0996 N   0  0  0  0  0  0
   11.4125   15.4548  -14.8449 C   0  0  0  0  0  0
   10.2714   14.6717  -14.9313 C   0  0  0  0  0  0
    8.9466   14.9011  -15.6204 C   0  0  0  0  0  0
   10.4603    7.9377  -18.9436 C   0  0  0  0  0  0
   11.1301    8.1962  -20.1533 C   0  0  0  0  0  0
   10.4929    8.2653  -21.3815 O   0  0  0  0  0  0
    9.0776    8.1218  -21.4561 C   0  0  0  0  0  0
   14.7848    9.3657  -22.3856 H   0  0  0  0  0  0
   14.6843    9.9907  -20.7444 H   0  0  0  0  0  0
   15.1339    8.2932  -21.0350 H   0  0  0  0  0  0
   14.2691    8.5431  -18.8692 H   0  0  0  0  0  0
   13.0976    8.0913  -16.8090 H   0  0  0  0  0  0
    8.7358    6.9397  -15.4398 H   0  0  0  0  0  0
    8.3761    7.7117  -16.9445 H   0  0  0  0  0  0
    7.1010    5.9798  -17.9375 H   0  0  0  0  0  0
    7.0121    3.7623  -19.0201 H   0  0  0  0  0  0
    8.9232    2.2066  -18.8159 H   0  0  0  0  0  0
   11.0251    5.0829  -16.4362 H   0  0  0  0  0  0
   10.3416   10.1484  -16.0272 H   0  0  0  0  0  0
   11.9520   11.2787  -14.7168 H   0  0  0  0  0  0
   12.1240    9.9924  -13.6031 H   0  0  0  0  0  0
   10.8045   11.4587  -12.3435 H   0  0  0  0  0  0
    9.5756   10.4540  -13.0170 H   0  0  0  0  0  0
    8.8657   12.8378  -13.2239 H   0  0  0  0  0  0
    9.1480   12.1646  -14.8178 H   0  0  0  0  0  0
   12.2700   13.0813  -13.0015 H   0  0  0  0  0  0
   11.5206   16.4301  -15.3024 H   0  0  0  0  0  0
    9.0151   15.6731  -16.3879 H   0  0  0  0  0  0
    8.1844   15.2318  -14.9138 H   0  0  0  0  0  0
    8.5701   13.9992  -16.1000 H   0  0  0  0  0  0
    9.3930    7.7931  -18.9561 H   0  0  0  0  0  0
    8.7601    8.2090  -22.4956 H   0  0  0  0  0  0
    8.7535    7.1440  -21.0954 H   0  0  0  0  0  0
    8.5668    8.9027  -20.8893 H   0  0  0  0  0  0
  1  2  1  0  0  0
  1 32  1  0  0  0
  1 33  1  0  0  0
  1 34  1  0  0  0
  2  3  1  0  0  0
  3 29  1  0  0  0
  3  4  2  0  0  0
  4  5  1  0  0  0
  4 35  1  0  0  0
  5  6  2  0  0  0
  5 36  1  0  0  0
  6  7  1  0  0  0
  6 28  1  0  0  0
  7  8  1  0  0  0
  7 16  1  0  0  0
  8  9  1  0  0  0
  8 37  1  0  0  0
  8 38  1  0  0  0
  9 15  1  0  0  0
  9 10  2  0  0  0
 10 11  1  0  0  0
 10 39  1  0  0  0
 11 12  2  0  0  0
 11 40  1  0  0  0
 12 13  1  0  0  0
 12 41  1  0  0  0
 13 14  1  0  0  0
 13 15  2  0  0  0
 15 42  1  0  0  0
 16 17  2  0  0  0
 16 18  1  0  0  0
 18 19  1  0  0  0
 18 43  1  0  0  0
 19 20  1  0  0  0
 19 44  1  0  0  0
 19 45  1  0  0  0
 20 21  1  0  0  0
 20 46  1  0  0  0
 20 47  1  0  0  0
 21 22  1  0  0  0
 21 48  1  0  0  0
 21 49  1  0  0  0
 22 26  1  0  0  0
 22 23  1  0  0  0
 23 24  2  0  0  0
 23 50  1  0  0  0
 24 25  1  0  0  0
 25 26  2  0  0  0
 25 51  1  0  0  0
 26 27  1  0  0  0
 27 52  1  0  0  0
 27 53  1  0  0  0
 27 54  1  0  0  0
 28 29  2  0  0  0
 28 55  1  0  0  0
 29 30  1  0  0  0
 30 31  1  0  0  0
 31 56  1  0  0  0
 31 57  1  0  0  0
 31 58  1  0  0  0
M  END
> <i_epik_Tot_Q>
0

> <i_epik_Tot_abs_Q>
0

> <i_i_glide_confnum>
67

> <i_i_glide_lignum>
123

> <i_i_glide_posenum>
34

> <i_i_glide_rotatable_bonds>
11

> <i_lp_mmshare_version>
51139

> <i_m_source_file_index>
51

> <i_f3d_flags>
0

> <b_lp_Chiralities_Consistent>
1

> <r_epik_Charging_Adjusted_Penalty>
0.988678

> <r_epik_Ionization_Penalty>
0.4915

> <r_epik_Ionization_Penalty_Charging>
0.4915

> <r_epik_Ionization_Penalty_Neutral>
0

> <r_epik_State_Penalty>
0.4972

> <r_i_docking_score>
-4.88355

> <r_i_glide_ecoul>
-3.75291

> <r_i_glide_eff_state_penalty>
0.497221

> <r_i_glide_einternal>
13.4222

> <r_i_glide_emodel>
-53.427

> <r_i_glide_energy>
-44.1292

> <r_i_glide_erotb>
0.859361

> <r_i_glide_esite>
-0.176829

> <r_i_glide_evdw>
-40.3763

> <r_i_glide_gscore>
-5.38077

> <r_i_glide_hbond>
-0.0801542

> <r_i_glide_ligand_efficiency>
-0.157534

> <r_i_glide_ligand_efficiency_ln>
-1.10139

> <r_i_glide_ligand_efficiency_sa>
-0.494874

> <r_i_glide_lipo>
-1.07133

> <r_i_glide_metal>
-2.06946

> <r_i_glide_rewards>
-0.260606

> <r_lp_Energy>
53.5688

> <r_lp_tautomer_probability>
1

> <s_epik_cmdline>
J2VwaWtfcHl0aG9uJywgJy1waHQnLCAnMi4wJywgJy1waCcsICc3LjQnLCAnLXRuJywgJzgnLCAnLW1hJywgJzIwMCcsICctaW1hZScsICc8aW5maWxlLm1hZT4nLCAnLW9tYWUnLCAnPG91dGZpbGUubWFlPic=

> <s_epik_input>
Q2xjKFtjSF0xKVtjSF1bY0hdW2NIXWMxW0NIMl1OKGMoW2NIXWMyT1tDSDNdKVtjSF1bY0hdYzJPW0NIM10pQyg9UylbTkhdW0NIMl1bQ0gyXVtDSDJdbjNbY0hdbltjSF1jM1tDSDNd

> <s_i_glide_gridfile>
Sries53165-001-gridgen

> <s_lp_Force_Field>
OPLS3e

> <s_lp_Variant>
lig50-2

> <s_m_source_file>
/home/user-home/yujie/0_PBCNetv2/data/0_0_high_sim/0_noncov/Sries53165/ligprep_input.csv

$$$$
