lig55
                    3D
 Schrodinger Suite 2023-4.
 51 52  0  0  1  0            999 V2000
    8.5369    5.7121  -17.2453 C   0  0  0  0  0  0
    9.9383    5.8391  -16.6219 C   0  0  0  0  0  0
   10.4899    7.2211  -16.6237 N   0  0  0  0  0  0
   10.3233    8.0701  -15.5308 C   0  0  0  0  0  0
    9.5520    7.6322  -14.0978 S   0  0  0  0  0  0
   10.8474    9.3286  -15.7004 N   0  0  0  0  0  0
   10.8755   10.4335  -14.7233 C   0  0  0  0  0  0
    9.6187   11.3277  -14.7288 C   0  0  0  0  0  0
    9.6439   12.4813  -13.6957 C   0  0  0  0  0  0
   10.5468   13.5695  -14.0624 N   0  0  0  0  0  0
   11.8103   13.8002  -13.5725 C   0  0  0  0  0  0
   12.3510   14.9039  -14.0237 N   0  0  0  0  0  0
   11.4329   15.4236  -14.8118 C   0  0  0  0  0  0
   10.2952   14.6350  -14.8975 C   0  0  0  0  0  0
    8.9915   14.8317  -15.6325 C   0  0  0  0  0  0
   11.1767    7.5864  -17.8078 C   0  0  0  0  0  0
   12.5609    7.7724  -17.7864 C   0  0  0  0  0  0
   13.2380    8.1407  -18.9470 C   0  0  0  0  0  0
   12.5416    8.3225  -20.1567 C   0  0  0  0  0  0
   13.1522    8.7204  -21.3337 O   0  0  0  0  0  0
   14.5345    9.0592  -21.3298 C   0  0  0  0  0  0
   11.1535    8.1146  -20.1877 C   0  0  0  0  0  0
   10.5100    8.3164  -21.3987 O   0  0  0  0  0  0
    9.0916    8.1981  -21.4803 C   0  0  0  0  0  0
   10.4821    7.7493  -19.0102 C   0  0  0  0  0  0
    8.0855    4.7530  -16.9881 H   0  0  0  0  0  0
    7.8690    6.5015  -16.8986 H   0  0  0  0  0  0
    8.5727    5.7500  -18.3339 H   0  0  0  0  0  0
   10.6143    5.2057  -17.1956 H   0  0  0  0  0  0
    9.9523    5.3805  -15.6357 H   0  0  0  0  0  0
   11.2054    9.5441  -16.6199 H   0  0  0  0  0  0
   11.7477   11.0476  -14.9433 H   0  0  0  0  0  0
   11.0821   10.0635  -13.7174 H   0  0  0  0  0  0
    8.7518   10.7040  -14.5025 H   0  0  0  0  0  0
    9.4431   11.7235  -15.7295 H   0  0  0  0  0  0
    9.9366   12.1085  -12.7140 H   0  0  0  0  0  0
    8.6468   12.9075  -13.5637 H   0  0  0  0  0  0
   12.2372   13.1123  -12.8572 H   0  0  0  0  0  0
   11.5548   16.3816  -15.3014 H   0  0  0  0  0  0
    9.0760   15.5826  -16.4191 H   0  0  0  0  0  0
    8.2030   15.1740  -14.9599 H   0  0  0  0  0  0
    8.6444   13.9108  -16.0972 H   0  0  0  0  0  0
   13.1165    7.6418  -16.8673 H   0  0  0  0  0  0
   14.3067    8.2915  -18.8884 H   0  0  0  0  0  0
   14.8274    9.3812  -22.3268 H   0  0  0  0  0  0
   14.7425    9.8821  -20.6451 H   0  0  0  0  0  0
   15.1574    8.2019  -21.0633 H   0  0  0  0  0  0
    8.7737    8.4204  -22.4998 H   0  0  0  0  0  0
    8.7550    7.1870  -21.2411 H   0  0  0  0  0  0
    8.5912    8.9067  -20.8165 H   0  0  0  0  0  0
    9.4124    7.6225  -19.0161 H   0  0  0  0  0  0
  1  2  1  0  0  0
  1 26  1  0  0  0
  1 27  1  0  0  0
  1 28  1  0  0  0
  2  3  1  0  0  0
  2 29  1  0  0  0
  2 30  1  0  0  0
  3  4  1  0  0  0
  3 16  1  0  0  0
  4  5  2  0  0  0
  4  6  1  0  0  0
  6  7  1  0  0  0
  6 31  1  0  0  0
  7  8  1  0  0  0
  7 32  1  0  0  0
  7 33  1  0  0  0
  8  9  1  0  0  0
  8 34  1  0  0  0
  8 35  1  0  0  0
  9 10  1  0  0  0
  9 36  1  0  0  0
  9 37  1  0  0  0
 10 14  1  0  0  0
 10 11  1  0  0  0
 11 12  2  0  0  0
 11 38  1  0  0  0
 12 13  1  0  0  0
 13 14  2  0  0  0
 13 39  1  0  0  0
 14 15  1  0  0  0
 15 40  1  0  0  0
 15 41  1  0  0  0
 15 42  1  0  0  0
 16 25  1  0  0  0
 16 17  2  0  0  0
 17 18  1  0  0  0
 17 43  1  0  0  0
 18 19  2  0  0  0
 18 44  1  0  0  0
 19 20  1  0  0  0
 19 22  1  0  0  0
 20 21  1  0  0  0
 21 45  1  0  0  0
 21 46  1  0  0  0
 21 47  1  0  0  0
 22 23  1  0  0  0
 22 25  2  0  0  0
 23 24  1  0  0  0
 24 48  1  0  0  0
 24 49  1  0  0  0
 24 50  1  0  0  0
 25 51  1  0  0  0
M  END
> <i_epik_Tot_Q>
0

> <i_epik_Tot_abs_Q>
0

> <i_i_glide_confnum>
95

> <i_i_glide_lignum>
135

> <i_i_glide_posenum>
331

> <i_i_glide_rotatable_bonds>
10

> <i_lp_mmshare_version>
51139

> <i_m_source_file_index>
56

> <i_f3d_flags>
0

> <b_lp_Chiralities_Consistent>
1

> <r_epik_Charging_Adjusted_Penalty>
0.944382

> <r_epik_Ionization_Penalty>
0.4701

> <r_epik_Ionization_Penalty_Charging>
0.4701

> <r_epik_Ionization_Penalty_Neutral>
0

> <r_epik_State_Penalty>
0.4743

> <r_i_docking_score>
-4.25933

> <r_i_glide_ecoul>
-5.91258

> <r_i_glide_eff_state_penalty>
0.474281

> <r_i_glide_einternal>
3.86698

> <r_i_glide_emodel>
-52.071

> <r_i_glide_energy>
-44.6091

> <r_i_glide_erotb>
1.02297

> <r_i_glide_esite>
-0.179018

> <r_i_glide_evdw>
-38.6965

> <r_i_glide_gscore>
-4.73361

> <r_i_glide_hbond>
-0.0306098

> <r_i_glide_ligand_efficiency>
-0.170373

> <r_i_glide_ligand_efficiency_ln>
-1.00959

> <r_i_glide_ligand_efficiency_sa>
-0.498174

> <r_i_glide_lipo>
-1.045

> <r_i_glide_metal>
-2.12365

> <r_i_glide_rewards>
0.44341

> <r_lp_Energy>
44.9321

> <r_lp_tautomer_probability>
1

> <s_epik_cmdline>
J2VwaWtfcHl0aG9uJywgJy1waHQnLCAnMi4wJywgJy1waCcsICc3LjQnLCAnLXRuJywgJzgnLCAnLW1hJywgJzIwMCcsICctaW1hZScsICc8aW5maWxlLm1hZT4nLCAnLW9tYWUnLCAnPG91dGZpbGUubWFlPic=

> <s_epik_input>
W0NIM11PYyhbY0hdMSljKE9bQ0gzXSlbY0hdW2NIXWMxTihbQ0gyXVtDSDNdKUMoPVMpW05IXVtDSDJdW0NIMl1bQ0gyXW4yW2NIXW5bY0hdYzJbQ0gzXQ==

> <s_i_glide_gridfile>
Sries53165-001-gridgen

> <s_lp_Force_Field>
OPLS3e

> <s_lp_Variant>
lig55-2

> <s_m_source_file>
/home/user-home/yujie/0_PBCNetv2/data/0_0_high_sim/0_noncov/Sries53165/ligprep_input.csv

$$$$
