lig49
                    3D
 Schrodinger Suite 2020-3.
 58 60  0  0  1  0            999 V2000
   14.6404    9.4157  -21.2716 C   0  0  0  0  0  0
   13.3124    8.9049  -21.2224 O   0  0  0  0  0  0
   12.7769    8.5050  -20.0098 C   0  0  0  0  0  0
   13.5037    8.5031  -18.8061 C   0  0  0  0  0  0
   12.9038    8.1172  -17.6102 C   0  0  0  0  0  0
   11.5678    7.7142  -17.5996 C   0  0  0  0  0  0
   10.9452    7.2988  -16.4020 N   0  0  0  0  0  0
   10.7804    5.8231  -16.2779 C   0  0  0  0  0  0
   11.6030    5.1197  -15.1935 C   0  0  0  0  0  0
   11.0314    4.0479  -14.5033 C   0  0  0  0  0  0
   11.7377    3.4172  -13.4830 C   0  0  0  0  0  0
   13.0149    3.8597  -13.1497 C   0  0  0  0  0  0
   13.6968    3.2493  -12.1544 F   0  0  0  0  0  0
   13.5925    4.9274  -13.8301 C   0  0  0  0  0  0
   12.8873    5.5577  -14.8510 C   0  0  0  0  0  0
   10.4327    8.1787  -15.4516 C   0  0  0  0  0  0
    9.5521    7.6935  -14.1010 S   0  0  0  0  0  0
   10.6931    9.5053  -15.6986 N   0  0  0  0  0  0
   10.0947   10.6733  -15.0281 C   0  0  0  0  0  0
   10.7533   11.0820  -13.6956 C   0  0  0  0  0  0
   10.2463   12.4344  -13.1471 C   0  0  0  0  0  0
   10.8115   13.5698  -13.8667 N   0  0  0  0  0  0
   12.0821   14.0679  -13.7122 C   0  0  0  0  0  0
   12.3420   15.0818  -14.4949 N   0  0  0  0  0  0
   11.2051   15.3063  -15.1246 C   0  0  0  0  0  0
   10.2211   14.3777  -14.8139 C   0  0  0  0  0  0
    8.7955   14.2303  -15.2969 C   0  0  0  0  0  0
   10.8372    7.7047  -18.7913 C   0  0  0  0  0  0
   11.4289    8.1060  -20.0018 C   0  0  0  0  0  0
   10.7453    8.1543  -21.2056 O   0  0  0  0  0  0
    9.3505    7.8659  -21.2380 C   0  0  0  0  0  0
   14.8731    9.7118  -22.2944 H   0  0  0  0  0  0
   14.7537   10.2985  -20.6401 H   0  0  0  0  0  0
   15.3715    8.6633  -20.9721 H   0  0  0  0  0  0
   14.5372    8.8113  -18.7773 H   0  0  0  0  0  0
   13.4810    8.1433  -16.6983 H   0  0  0  0  0  0
    9.7213    5.5922  -16.1514 H   0  0  0  0  0  0
   11.0515    5.3395  -17.2182 H   0  0  0  0  0  0
   10.0357    3.7081  -14.7494 H   0  0  0  0  0  0
   11.2978    2.5911  -12.9464 H   0  0  0  0  0  0
   14.5825    5.2653  -13.5621 H   0  0  0  0  0  0
   13.3397    6.3882  -15.3664 H   0  0  0  0  0  0
   11.3033    9.7091  -16.4761 H   0  0  0  0  0  0
    9.0170   10.5600  -14.8997 H   0  0  0  0  0  0
   10.1811   11.5068  -15.7252 H   0  0  0  0  0  0
   11.8392   11.0992  -13.7993 H   0  0  0  0  0  0
   10.5456   10.3190  -12.9449 H   0  0  0  0  0  0
   10.5240   12.5401  -12.1009 H   0  0  0  0  0  0
    9.1578   12.5056  -13.1743 H   0  0  0  0  0  0
   12.7516   13.5955  -13.0077 H   0  0  0  0  0  0
   11.0797   16.1374  -15.8061 H   0  0  0  0  0  0
    8.5228   15.0343  -15.9814 H   0  0  0  0  0  0
    8.0839   14.2773  -14.4746 H   0  0  0  0  0  0
    8.6286   13.2879  -15.8164 H   0  0  0  0  0  0
    9.8041    7.3940  -18.7599 H   0  0  0  0  0  0
    8.9763    7.9992  -22.2534 H   0  0  0  0  0  0
    9.1507    6.8338  -20.9466 H   0  0  0  0  0  0
    8.7855    8.5386  -20.5905 H   0  0  0  0  0  0
  1  2  1  0  0  0
  1 32  1  0  0  0
  1 33  1  0  0  0
  1 34  1  0  0  0
  2  3  1  0  0  0
  3 29  1  0  0  0
  3  4  2  0  0  0
  4  5  1  0  0  0
  4 35  1  0  0  0
  5  6  2  0  0  0
  5 36  1  0  0  0
  6  7  1  0  0  0
  6 28  1  0  0  0
  7  8  1  0  0  0
  7 16  1  0  0  0
  8  9  1  0  0  0
  8 37  1  0  0  0
  8 38  1  0  0  0
  9 15  1  0  0  0
  9 10  2  0  0  0
 10 11  1  0  0  0
 10 39  1  0  0  0
 11 12  2  0  0  0
 11 40  1  0  0  0
 12 13  1  0  0  0
 12 14  1  0  0  0
 14 15  2  0  0  0
 14 41  1  0  0  0
 15 42  1  0  0  0
 16 17  2  0  0  0
 16 18  1  0  0  0
 18 19  1  0  0  0
 18 43  1  0  0  0
 19 20  1  0  0  0
 19 44  1  0  0  0
 19 45  1  0  0  0
 20 21  1  0  0  0
 20 46  1  0  0  0
 20 47  1  0  0  0
 21 22  1  0  0  0
 21 48  1  0  0  0
 21 49  1  0  0  0
 22 26  1  0  0  0
 22 23  1  0  0  0
 23 24  2  0  0  0
 23 50  1  0  0  0
 24 25  1  0  0  0
 25 26  2  0  0  0
 25 51  1  0  0  0
 26 27  1  0  0  0
 27 52  1  0  0  0
 27 53  1  0  0  0
 27 54  1  0  0  0
 28 29  2  0  0  0
 28 55  1  0  0  0
 29 30  1  0  0  0
 30 31  1  0  0  0
 31 56  1  0  0  0
 31 57  1  0  0  0
 31 58  1  0  0  0
M  END
> <s_m_source_file>
/home/user-home/yujie/0_PBCNetv2/data/0_0_high_sim/0_noncov/Sries53165/ligprep_input.csv

> <i_m_source_file_index>
50

> <i_lp_mmshare_version>
51139

> <i_f3d_flags>
0

> <s_epik_input>
W2NIXTFbY0hdYyhGKVtjSF1bY0hdYzFbQ0gyXU4oYyhbY0hdYzJPW0NIM10pW2NIXVtjSF1jMk9bQ0gzXSlDKD1TKVtOSF1bQ0gyXVtDSDJdW0NIMl1uM1tjSF1uW2NIXWMzW0NIM10=

> <s_epik_cmdline>
J2VwaWtfcHl0aG9uJywgJy1waHQnLCAnMi4wJywgJy1waCcsICc3LjQnLCAnLXRuJywgJzgnLCAnLW1hJywgJzIwMCcsICctaW1hZScsICc8aW5maWxlLm1hZT4nLCAnLW9tYWUnLCAnPG91dGZpbGUubWFlPic=

> <r_lp_tautomer_probability>
1

> <r_epik_Ionization_Penalty>
  0.4915

> <r_epik_Ionization_Penalty_Charging>
  0.4915

> <r_epik_Ionization_Penalty_Neutral>
  0.0000

> <r_epik_State_Penalty>
  0.4972

> <r_epik_Charging_Adjusted_Penalty>
0.988678

> <i_epik_Tot_Q>
0

> <i_epik_Tot_abs_Q>
0

> <s_lp_Force_Field>
OPLS3e

> <r_lp_Energy>
54.0373

> <b_lp_Chiralities_Consistent>
1

> <s_lp_Variant>
lig49-2

> <s_i_glide_gridfile>
Sries53165-001-gridgen

> <i_i_glide_lignum>
121

> <i_i_glide_rotatable_bonds>
11

> <r_i_docking_score>
-3.25710590125358

> <r_i_glide_ligand_efficiency>
-0.105067932298502

> <r_i_glide_ligand_efficiency_sa>
-0.330058369331479

> <r_i_glide_ligand_efficiency_ln>
-0.734577199040829

> <r_i_glide_gscore>
-3.75432690125358

> <r_i_glide_lipo>
-0.880746904803059

> <r_i_glide_hbond>
-0.300821992128531

> <r_i_glide_metal>
-2.04235310912874

> <r_i_glide_rewards>
1.45930198110833

> <r_i_glide_evdw>
-36.6965255737305

> <r_i_glide_ecoul>
-5.91642236709595

> <r_i_glide_erotb>
0.918344480874407

> <r_i_glide_esite>
-0.185761723425067

> <r_i_glide_emodel>
-45.8100840690321

> <r_i_glide_energy>
-42.6129479408264

> <r_i_glide_einternal>
8.16656970977783

> <i_i_glide_confnum>
327

> <i_i_glide_posenum>
185

> <r_i_glide_eff_state_penalty>
0.497221

$$$$
