lig_pfkfb3_36
                    3D
 Schrodinger Suite 2024-1.
 53 57  0  0  1  0            999 V2000
   89.2078   48.8692  266.2057 C   0  0  0  0  0  0
   90.1233   47.7772  266.3754 N   0  0  0  0  0  0
   91.4270   48.1436  266.7751 C   0  0  0  0  0  0
   91.7308   49.4013  267.3656 C   0  0  0  0  0  0
   93.0344   49.7230  267.7984 C   0  0  0  0  0  0
   93.2487   50.9752  268.5559 C   0  0  0  0  0  0
   94.2316   51.9214  268.1841 C   0  0  0  0  0  0
   94.4591   53.0814  268.9558 C   0  0  0  0  0  0
   93.7146   53.3305  270.1366 C   0  0  0  0  0  0
   93.6785   54.3747  271.1318 C   0  0  0  0  0  0
   92.7356   54.0018  272.0593 C   0  0  0  0  0  0
   92.1766   52.7791  271.6935 N   0  0  0  0  0  0
   91.1667   52.0435  272.4190 C   0  0  0  0  0  0
   92.7342   52.3592  270.4988 C   0  0  0  0  0  0
   92.4847   51.2222  269.7145 C   0  0  0  0  0  0
   94.0829   48.7891  267.5737 C   0  0  0  0  0  0
   95.3416   49.0383  268.0197 N   0  0  0  0  0  0
   96.2977   48.1084  267.8038 C   0  0  0  0  0  0
   96.0088   46.9056  267.1346 C   0  0  0  0  0  0
   94.7677   46.6335  266.6804 N   0  0  0  0  0  0
   93.7964   47.5494  266.9113 C   0  0  0  0  0  0
   92.4764   47.2477  266.5310 C   0  0  0  0  0  0
   89.3587   46.6336  266.6415 C   0  0  0  0  0  0
   89.3452   46.0783  267.9496 C   0  0  0  0  0  0
   88.3294   45.3151  268.4290 N   0  0  0  0  0  0
   87.2185   45.2199  267.6606 C   0  0  0  0  0  0
   87.1598   45.6796  266.3264 C   0  0  0  0  0  0
   88.3290   46.2313  265.7419 C   0  0  0  0  0  0
   88.5124   46.3570  263.9192 S   0  0  0  0  0  0
   88.5381   44.9979  263.3594 O   0  0  0  0  0  0
   87.5191   47.3139  263.4167 O   0  0  0  0  0  0
   90.1890   47.0096  263.5074 C   0  0  0  0  0  0
   89.7392   49.3126  265.3924 H   0  0  0  0  0  0
   88.2018   48.6307  265.8633 H   0  0  0  0  0  0
   89.1220   49.4956  267.0889 H   0  0  0  0  0  0
   90.9672   50.1351  267.5669 H   0  0  0  0  0  0
   94.8339   51.7490  267.3033 H   0  0  0  0  0  0
   95.2169   53.7861  268.6454 H   0  0  0  0  0  0
   94.2817   55.2706  271.1368 H   0  0  0  0  0  0
   92.4149   54.5079  272.9594 H   0  0  0  0  0  0
   90.9505   52.5200  273.3740 H   0  0  0  0  0  0
   90.2634   52.0019  271.8073 H   0  0  0  0  0  0
   91.5160   51.0266  272.6095 H   0  0  0  0  0  0
   91.7452   50.5136  270.0373 H   0  0  0  0  0  0
   97.2923   48.3301  268.1610 H   0  0  0  0  0  0
   96.7705   46.1610  266.9569 H   0  0  0  0  0  0
   92.2758   46.2977  266.0636 H   0  0  0  0  0  0
   90.1051   46.3458  268.6680 H   0  0  0  0  0  0
   86.3859   44.6803  268.0885 H   0  0  0  0  0  0
   86.2786   45.3902  265.7802 H   0  0  0  0  0  0
   90.3323   46.9289  262.4325 H   0  0  0  0  0  0
   90.2833   48.0478  263.7987 H   0  0  0  0  0  0
   90.9412   46.4137  264.0199 H   0  0  0  0  0  0
  1  2  1  0  0  0
  1 33  1  0  0  0
  1 34  1  0  0  0
  1 35  1  0  0  0
  2  3  1  0  0  0
  2 23  1  0  0  0
  3 22  1  0  0  0
  3  4  2  0  0  0
  4  5  1  0  0  0
  4 36  1  0  0  0
  5  6  1  0  0  0
  5 16  2  0  0  0
  6 15  1  0  0  0
  6  7  2  0  0  0
  7  8  1  0  0  0
  7 37  1  0  0  0
  8  9  2  0  0  0
  8 38  1  0  0  0
  9 14  1  0  0  0
  9 10  1  0  0  0
 10 11  2  0  0  0
 10 39  1  0  0  0
 11 12  1  0  0  0
 11 40  1  0  0  0
 12 13  1  0  0  0
 12 14  1  0  0  0
 13 41  1  0  0  0
 13 42  1  0  0  0
 13 43  1  0  0  0
 14 15  2  0  0  0
 15 44  1  0  0  0
 16 21  1  0  0  0
 16 17  1  0  0  0
 17 18  2  0  0  0
 18 19  1  0  0  0
 18 45  1  0  0  0
 19 20  2  0  0  0
 19 46  1  0  0  0
 20 21  1  0  0  0
 21 22  2  0  0  0
 22 47  1  0  0  0
 23 28  1  0  0  0
 23 24  2  0  0  0
 24 25  1  0  0  0
 24 48  1  0  0  0
 25 26  2  0  0  0
 26 27  1  0  0  0
 26 49  1  0  0  0
 27 28  2  0  0  0
 27 50  1  0  0  0
 28 29  1  0  0  0
 29 30  2  0  0  0
 29 31  2  0  0  0
 29 32  1  0  0  0
 32 51  1  0  0  0
 32 52  1  0  0  0
 32 53  1  0  0  0
M  END
> <Tot Q>
0

> <flags>
0

> <Source File Index>
3

> <subgroup collapsed>
0

> <Ionization Penalty>
0

> <State Penalty>
0

> <docking score>
-8.7815

> <glide emodel>
-56.7283

> <glide gscore>
-8.7815

> <tautomer probability>
1

> <Source File>
glide-dock_SP_16_pv.maegz

> <Source Path>
C:\Users\yujie\Documents\Schrodinger\glide-dock_SP_16

> <entry id>
3447

> <job name>
glide-dock_SP_16

> <subgroup title>
glide-dock_SP_16_pv

> <subgroupid>
glide-dock_SP_16_pv

$$$$
