lig_pfkfb3_23
                    3D
 Schrodinger Suite 2023-4.
 45 49  0  0  1  0            999 V2000
   91.2071   52.2827  272.1568 C   0  0  0  0  0  0
   92.2511   52.9178  271.3855 N   0  0  0  0  0  0
   92.8764   54.1124  271.7133 C   0  0  0  0  0  0
   93.8138   54.4203  270.7654 C   0  0  0  0  0  0
   93.7956   53.3531  269.8084 C   0  0  0  0  0  0
   94.5294   53.0450  268.6380 C   0  0  0  0  0  0
   94.2645   51.8714  267.9018 C   0  0  0  0  0  0
   93.2510   50.9733  268.3024 C   0  0  0  0  0  0
   92.9752   49.7261  267.5645 C   0  0  0  0  0  0
   91.6927   49.5322  267.0083 C   0  0  0  0  0  0
   91.3568   48.3418  266.3378 C   0  0  0  0  0  0
   90.1394   48.2579  265.6517 N   0  0  0  0  0  0
   89.0103   47.5435  266.0702 C   0  0  0  0  0  0
   88.1397   48.0938  267.0357 C   0  0  0  0  0  0
   86.9535   47.4148  267.3857 C   0  0  0  0  0  0
   86.6475   46.2013  266.7395 C   0  0  0  0  0  0
   87.4919   45.7125  265.8080 N   0  3  0  0  0  0
   88.6427   46.3285  265.4534 C   0  0  0  0  0  0
   92.3117   47.3127  266.2589 C   0  0  0  0  0  0
   93.6169   47.4890  266.7708 C   0  0  0  0  0  0
   94.5402   46.5125  266.6079 N   0  0  0  0  0  0
   95.7910   46.7349  267.0564 C   0  0  0  0  0  0
   96.1382   47.9396  267.6909 C   0  0  0  0  0  0
   95.2248   48.9125  267.8796 N   0  0  0  0  0  0
   93.9624   48.7171  267.4168 C   0  0  0  0  0  0
   92.5071   51.2752  269.4595 C   0  0  0  0  0  0
   92.7899   52.4301  270.2079 C   0  0  0  0  0  0
   91.5551   51.3153  272.5208 H   0  0  0  0  0  0
   90.9403   52.9067  273.0079 H   0  0  0  0  0  0
   90.3254   52.1393  271.5317 H   0  0  0  0  0  0
   92.5950   54.6579  272.6040 H   0  0  0  0  0  0
   94.4624   55.2836  270.7457 H   0  0  0  0  0  0
   95.3110   53.7140  268.3097 H   0  0  0  0  0  0
   94.8540   51.6562  267.0220 H   0  0  0  0  0  0
   90.9662   50.3274  267.0894 H   0  0  0  0  0  0
   89.8381   49.1925  265.4077 H   0  0  0  0  0  0
   88.3686   49.0437  267.4915 H   0  0  0  0  0  0
   86.2831   47.8216  268.1294 H   0  0  0  0  0  0
   85.7622   45.6079  266.9287 H   0  0  0  0  0  0
   89.2203   45.8444  264.6801 H   0  0  0  0  0  0
   92.0796   46.4076  265.7257 H   0  0  0  0  0  0
   96.5143   45.9451  266.9146 H   0  0  0  0  0  0
   97.1395   48.1212  268.0529 H   0  0  0  0  0  0
   91.7397   50.5974  269.7997 H   0  0  0  0  0  0
   87.2396   44.8009  265.3755 H   0  0  0  0  0  0
  1  2  1  0  0  0
  1 28  1  0  0  0
  1 29  1  0  0  0
  1 30  1  0  0  0
  2 27  1  0  0  0
  2  3  1  0  0  0
  3  4  2  0  0  0
  3 31  1  0  0  0
  4  5  1  0  0  0
  4 32  1  0  0  0
  5 27  2  0  0  0
  5  6  1  0  0  0
  6  7  2  0  0  0
  6 33  1  0  0  0
  7  8  1  0  0  0
  7 34  1  0  0  0
  8  9  1  0  0  0
  8 26  2  0  0  0
  9 25  1  0  0  0
  9 10  2  0  0  0
 10 11  1  0  0  0
 10 35  1  0  0  0
 11 12  1  0  0  0
 11 19  2  0  0  0
 12 13  1  0  0  0
 12 36  1  0  0  0
 13 18  1  0  0  0
 13 14  2  0  0  0
 14 15  1  0  0  0
 14 37  1  0  0  0
 15 16  2  0  0  0
 15 38  1  0  0  0
 16 17  1  0  0  0
 16 39  1  0  0  0
 17 18  2  0  0  0
 17 45  1  0  0  0
 18 40  1  0  0  0
 19 20  1  0  0  0
 19 41  1  0  0  0
 20 25  2  0  0  0
 20 21  1  0  0  0
 21 22  2  0  0  0
 22 23  1  0  0  0
 22 42  1  0  0  0
 23 24  2  0  0  0
 23 43  1  0  0  0
 24 25  1  0  0  0
 26 27  1  0  0  0
 26 44  1  0  0  0
M  CHG  1  17   1
M  END
> <i_epik_Tot_Q>
1

> <i_epik_Tot_abs_Q>
1

> <i_f3d_flags>
0

> <i_i_glide_confnum>
36

> <i_i_glide_lignum>
21

> <i_i_glide_posenum>
334

> <i_i_glide_rotatable_bonds>
3

> <i_lp_mmshare_version>
65135

> <i_m_Source_File_Index>
20

> <i_m_source_file_index>
20

> <b_lp_Chiralities_Consistent>
1

> <r_canvas_pIC50s>
5.8

> <r_epik_Charging_Adjusted_Penalty>
3.72481

> <r_epik_Ionization_Penalty>
1.8624

> <r_epik_Ionization_Penalty_Charging>
1.8624

> <r_epik_Ionization_Penalty_Neutral>
0

> <r_epik_State_Penalty>
1.8624

> <r_i_docking_score>
-8.66107

> <r_i_glide_ecoul>
-7.1562

> <r_i_glide_eff_state_penalty>
1.8624

> <r_i_glide_einternal>
11.7268

> <r_i_glide_emodel>
-86.3036

> <r_i_glide_energy>
-55.5673

> <r_i_glide_erotb>
0.461002

> <r_i_glide_esite>
-0.1

> <r_i_glide_evdw>
-48.4111

> <r_i_glide_gscore>
-10.5235

> <r_i_glide_hbond>
-0.2

> <r_i_glide_ligand_efficiency>
-0.32078

> <r_i_glide_ligand_efficiency_ln>
-2.01615

> <r_i_glide_ligand_efficiency_sa>
-0.962341

> <r_i_glide_lipo>
-5.55673

> <r_i_glide_metal>
-0

> <r_i_glide_rewards>
-1.63375

> <r_lp_Energy>
59.8703

> <r_lp_tautomer_probability>
0.999846

> <s_canvas_SMILES>
Cn1ccc2ccc(-c3cc(Nc4cccnc4)cc4nccnc34)cc21

> <s_canvas_chembl\_ids>
CHEMBL2331053

> <s_canvas_dirnames>
test_set_fep+

> <s_canvas_pdb\_ids>
6HVI

> <s_canvas_protein\_names>
pfkfb3

> <s_canvas_uniprot\_ids>
Q16875

> <s_epik_cmdline>
J2VwaWtfcHl0aG9uJywgJy1waCcsICc3LjAnLCAnLXRuJywgJzgnLCAnLW1hJywgJzUwMCcsICctaW1hZScsICc8aW5maWxlLm1hZT4nLCAnLW9tYWUnLCAnPG91dGZpbGUubWFlPic=

> <s_epik_input>
W2NIXTFbY0hdbihbQ0gzXSljKGMxMilbY0hdYyhbY0hdW2NIXTIpLWMoYyhjMzQpbltjSF1bY0hdbjQpW2NIXWMoW2NIXTMpW05IXWM1W2NIXVtjSF1bY0hdbltjSF01

> <s_i_glide_gridfile>
pfkfb3-001-gridgen

> <s_lp_Force_Field>
S-OPLS

> <s_lp_Variant>
lig_pfkfb3_23-2

> <s_m_Source_File>
ligprep_pfkfb3-out.maegz

> <s_m_Source_Path>
C:\Users\yujie\Desktop\FEP\ligprep_pfkfb3

> <s_m_entry_id>
10914

> <s_m_entry_name>
label.20

> <s_m_job_name>
ligprep_pfkfb3

> <s_m_source_file>
ligprep_pfkfb3.maegz

$$$$
