lig_pfkfb3_55
                    3D
 Schrodinger Suite 2020-3.
 50 54  0  0  1  0            999 V2000
   91.3948   52.4220  272.3301 C   0  0  0  0  0  0
   92.4150   53.0246  271.4897 N   0  0  0  0  0  0
   93.0139   54.2413  271.7146 C   0  0  0  0  0  0
   93.9144   54.5122  270.7095 C   0  0  0  0  0  0
   93.8660   53.4092  269.7969 C   0  0  0  0  0  0
   94.5391   53.0846  268.6087 C   0  0  0  0  0  0
   95.4502   53.9198  268.0639 F   0  0  0  0  0  0
   94.2507   51.8787  267.9778 C   0  0  0  0  0  0
   93.2898   50.9966  268.4756 C   0  0  0  0  0  0
   93.0257   49.7117  267.7752 C   0  0  0  0  0  0
   91.7241   49.4119  267.3547 C   0  0  0  0  0  0
   91.4166   48.2429  266.6639 C   0  0  0  0  0  0
   90.0884   48.0083  266.2814 N   0  0  0  0  0  0
   89.5233   47.3378  265.1843 C   0  0  0  0  0  0
   90.2727   47.0936  264.0243 C   0  0  0  0  0  0
   89.7689   46.5154  262.9066 N   0  0  0  0  0  0
   88.4587   46.1690  262.9200 C   0  0  0  0  0  0
   87.6308   46.3738  264.0202 C   0  0  0  0  0  0
   88.1658   46.9571  265.1755 C   0  0  0  0  0  0
   87.0689   47.1283  266.5963 S   0  0  0  0  0  0
   87.1606   45.4364  267.4045 C   0  0  0  0  0  0
   87.6453   48.1130  267.5182 O   0  0  0  0  0  0
   85.7051   47.3121  266.0918 O   0  0  0  0  0  0
   92.4187   47.3122  266.4074 C   0  0  0  0  0  0
   93.7400   47.5395  266.8457 C   0  0  0  0  0  0
   94.6935   46.5959  266.6085 N   0  0  0  0  0  0
   95.9496   46.8473  267.0484 C   0  0  0  0  0  0
   96.2733   48.0298  267.7069 C   0  0  0  0  0  0
   95.3397   48.9792  267.9515 N   0  0  0  0  0  0
   94.0589   48.7556  267.5246 C   0  0  0  0  0  0
   92.5785   51.3079  269.6390 C   0  0  0  0  0  0
   92.8943   52.4975  270.3035 C   0  0  0  0  0  0
   90.4335   52.4775  271.8145 H   0  0  0  0  0  0
   91.6528   51.3768  272.5149 H   0  0  0  0  0  0
   91.3395   52.9423  273.2889 H   0  0  0  0  0  0
   92.7468   54.8174  272.5909 H   0  0  0  0  0  0
   94.5396   55.3908  270.6407 H   0  0  0  0  0  0
   94.7851   51.6316  267.0710 H   0  0  0  0  0  0
   90.9323   50.1233  267.5474 H   0  0  0  0  0  0
   89.3842   48.3903  266.9076 H   0  0  0  0  0  0
   91.3088   47.3852  263.9652 H   0  0  0  0  0  0
   88.0735   45.7094  262.0229 H   0  0  0  0  0  0
   86.5932   46.0651  263.9860 H   0  0  0  0  0  0
   86.5188   45.4385  268.2834 H   0  0  0  0  0  0
   86.8110   44.6946  266.6862 H   0  0  0  0  0  0
   88.1908   45.2347  267.6876 H   0  0  0  0  0  0
   92.1957   46.3869  265.9042 H   0  0  0  0  0  0
   96.6899   46.0830  266.8624 H   0  0  0  0  0  0
   97.2800   48.2318  268.0468 H   0  0  0  0  0  0
   91.8403   50.6267  270.0318 H   0  0  0  0  0  0
  1  2  1  0  0  0
  1 33  1  0  0  0
  1 34  1  0  0  0
  1 35  1  0  0  0
  2 32  1  0  0  0
  2  3  1  0  0  0
  3  4  2  0  0  0
  3 36  1  0  0  0
  4  5  1  0  0  0
  4 37  1  0  0  0
  5 32  2  0  0  0
  5  6  1  0  0  0
  6  7  1  0  0  0
  6  8  2  0  0  0
  8  9  1  0  0  0
  8 38  1  0  0  0
  9 10  1  0  0  0
  9 31  2  0  0  0
 10 30  1  0  0  0
 10 11  2  0  0  0
 11 12  1  0  0  0
 11 39  1  0  0  0
 12 13  1  0  0  0
 12 24  2  0  0  0
 13 14  1  0  0  0
 13 40  1  0  0  0
 14 19  1  0  0  0
 14 15  2  0  0  0
 15 16  1  0  0  0
 15 41  1  0  0  0
 16 17  2  0  0  0
 17 18  1  0  0  0
 17 42  1  0  0  0
 18 19  2  0  0  0
 18 43  1  0  0  0
 19 20  1  0  0  0
 20 21  1  0  0  0
 20 22  2  0  0  0
 20 23  2  0  0  0
 21 44  1  0  0  0
 21 45  1  0  0  0
 21 46  1  0  0  0
 24 25  1  0  0  0
 24 47  1  0  0  0
 25 30  2  0  0  0
 25 26  1  0  0  0
 26 27  2  0  0  0
 27 28  1  0  0  0
 27 48  1  0  0  0
 28 29  2  0  0  0
 28 49  1  0  0  0
 29 30  1  0  0  0
 31 32  1  0  0  0
 31 50  1  0  0  0
M  END
> <s_m_source_file>
/home/user-home/yujie/0_PBCNetv2/data/FEP/pfkfb3/inp_ligprep.csv

> <i_m_source_file_index>
21

> <i_lp_mmshare_version>
51139

> <i_f3d_flags>
0

> <s_epik_input>
W2NIXTFbY0hdbihbQ0gzXSljKGMxMilbY0hdYyhbY0hdYzJGKS1jKGMoYzM0KW5bY0hdW2NIXW40KVtjSF1jKFtjSF0zKVtOSF1jNVtjSF1uW2NIXVtjSF1jNVMoPU8pKD1PKVtDSDNd

> <s_epik_cmdline>
J2VwaWtfcHl0aG9uJywgJy1waHQnLCAnMi4wJywgJy1waCcsICc3LjQnLCAnLXRuJywgJzgnLCAnLW1hJywgJzIwMCcsICctaW1hZScsICc8aW5maWxlLm1hZT4nLCAnLW9tYWUnLCAnPG91dGZpbGUubWFlPic=

> <r_lp_tautomer_probability>
1

> <r_epik_Ionization_Penalty>
  0.0000

> <r_epik_Ionization_Penalty_Charging>
  0.0000

> <r_epik_Ionization_Penalty_Neutral>
  0.0000

> <r_epik_State_Penalty>
 -0.0000

> <r_epik_Charging_Adjusted_Penalty>
0

> <i_epik_Tot_Q>
0

> <i_epik_Tot_abs_Q>
0

> <s_lp_Force_Field>
OPLS3e

> <r_lp_Energy>
49.5137

> <b_lp_Chiralities_Consistent>
1

> <s_lp_Variant>
lig_pfkfb3_55-1

> <s_i_glide_gridfile>
pfkfb3-001-gridgen

> <i_i_glide_lignum>
22

> <i_i_glide_rotatable_bonds>
4

> <r_i_docking_score>
-10.2280732206224

> <r_i_glide_ligand_efficiency>
-0.31962728814445

> <r_i_glide_ligand_efficiency_sa>
-1.0147533857042

> <r_i_glide_ligand_efficiency_ln>
-2.29034440084333

> <r_i_glide_gscore>
-10.2280732206224

> <r_i_glide_lipo>
-5.68834900457024

> <r_i_glide_hbond>
0

> <r_i_glide_metal>
-0

> <r_i_glide_rewards>
-1.38114997092402

> <r_i_glide_evdw>
-62.3835601806641

> <r_i_glide_ecoul>
-1.92777955532074

> <r_i_glide_erotb>
0.300009741636118

> <r_i_glide_esite>
-0.0502390444329383

> <r_i_glide_emodel>
-101.626650947567

> <r_i_glide_energy>
-64.3113397359848

> <r_i_glide_einternal>
3.82045650482178

> <i_i_glide_confnum>
5

> <i_i_glide_posenum>
114

> <r_i_glide_eff_state_penalty>
-0

$$$$
