agenerase.sdf
                    3D
 Schrodinger Suite 2024-1.
 70 72  0  0  1  0            999 V2000
   12.9061   18.0542   11.7008 C   0  0  0  0  0  0
   12.9480   19.1055   10.7670 C   0  0  0  0  0  0
   12.1835   19.0225    9.5881 C   0  0  0  0  0  0
   11.3899   17.8968    9.3159 C   0  0  0  0  0  0
   11.3679   16.8458   10.2448 C   0  0  0  0  0  0
   12.1083   16.9233   11.4429 C   0  0  0  0  0  0
   13.7402   20.2268   11.0051 N   0  0  0  0  0  0
   10.3387   15.4225    9.9546 S   0  0  0  0  0  0
    9.8208   15.0208   11.2702 O   0  0  0  0  0  0
    9.4079   15.7158    8.8556 O   0  0  0  0  0  0
   11.4700   14.2212    9.3851 N   0  0  0  0  0  0
   12.3205   13.4709   10.3343 C   0  0  0  0  0  0
   13.8272   13.4774    9.9856 C   0  0  0  0  0  0
   14.5698   12.4289   10.8249 C   0  0  0  0  0  0
   14.4745   14.8558   10.1885 C   0  0  0  0  0  0
   11.4629   13.7815    7.9719 C   0  0  0  0  0  0
   11.9185   14.8911    6.9898 C   0  0  1  0  0  0
   13.3233   15.0215    7.1094 O   0  0  0  0  0  0
   11.6231   14.5761    5.4967 C   0  0  2  0  0  0
   12.0791   15.7218    4.5660 C   0  0  0  0  0  0
   10.2208   14.2347    5.2659 N   0  0  0  0  0  0
   11.8474   15.5017    3.0769 C   0  0  0  0  0  0
   10.7781   16.1478    2.4150 C   0  0  0  0  0  0
   10.6306   16.0244    1.0190 C   0  0  0  0  0  0
   11.5525   15.2586    0.2793 C   0  0  0  0  0  0
   12.6061   14.5986    0.9379 C   0  0  0  0  0  0
   12.7544   14.7188    2.3334 C   0  0  0  0  0  0
    9.1562   15.1105    5.4167 C   0  0  0  0  0  0
    8.0220   14.4772    5.0799 O   0  0  0  0  0  0
    9.2175   16.2796    5.7933 O   0  0  0  0  0  0
    6.7819   15.1744    5.1254 C   0  0  2  0  0  0
    6.2454   15.2681    6.5664 C   0  0  0  0  0  0
    4.9774   14.6168    6.5577 O   0  0  0  0  0  0
    5.0049   13.6346    5.5378 C   0  0  0  0  0  0
    5.7178   14.3575    4.4047 C   0  0  0  0  0  0
   13.4801   18.1065   12.6127 H   0  0  0  0  0  0
   12.2044   19.8211    8.8669 H   0  0  0  0  0  0
   10.8037   17.8572    8.4099 H   0  0  0  0  0  0
   12.0701   16.1170   12.1588 H   0  0  0  0  0  0
   13.5818   21.0572   10.4497 H   0  0  0  0  0  0
   14.1112   20.3849   11.9306 H   0  0  0  0  0  0
   12.1900   13.8805   11.3326 H   0  0  0  0  0  0
   11.9558   12.4429   10.3765 H   0  0  0  0  0  0
   13.9669   13.1929    8.9437 H   0  0  0  0  0  0
   14.4647   12.6255   11.8924 H   0  0  0  0  0  0
   14.1854   11.4271   10.6304 H   0  0  0  0  0  0
   15.6352   12.4217   10.5917 H   0  0  0  0  0  0
   14.4342   15.1658   11.2339 H   0  0  0  0  0  0
   15.5229   14.8434    9.8908 H   0  0  0  0  0  0
   13.9824   15.6253    9.5936 H   0  0  0  0  0  0
   12.0630   12.8794    7.8429 H   0  0  0  0  0  0
   10.4414   13.4761    7.7467 H   0  0  0  0  0  0
   11.4604   15.8431    7.2554 H   0  0  0  0  0  0
   13.5877   15.8390    6.7100 H   0  0  0  0  0  0
   12.1883   13.6816    5.2251 H   0  0  0  0  0  0
   11.5536   16.6207    4.8756 H   0  0  0  0  0  0
   13.1436   15.9251    4.7016 H   0  0  0  0  0  0
   10.0144   13.3152    4.8830 H   0  0  0  0  0  0
   10.0794   16.7552    2.9722 H   0  0  0  0  0  0
    9.8201   16.5297    0.5155 H   0  0  0  0  0  0
   11.4513   15.1788   -0.7932 H   0  0  0  0  0  0
   13.3210   14.0176    0.3713 H   0  0  0  0  0  0
   13.5856   14.2356    2.8247 H   0  0  0  0  0  0
    6.8807   16.1553    4.6611 H   0  0  0  0  0  0
    6.9037   14.7498    7.2685 H   0  0  0  0  0  0
    6.1472   16.3032    6.8976 H   0  0  0  0  0  0
    4.0013   13.3054    5.2716 H   0  0  0  0  0  0
    5.5719   12.7660    5.8766 H   0  0  0  0  0  0
    5.0122   15.0271    3.9140 H   0  0  0  0  0  0
    6.1177   13.6797    3.6515 H   0  0  0  0  0  0
  1  2  2  0  0  0
  1  6  1  0  0  0
  1 36  1  0  0  0
  2  3  1  0  0  0
  2  7  1  0  0  0
  3  4  2  0  0  0
  3 37  1  0  0  0
  4  5  1  0  0  0
  4 38  1  0  0  0
  5  6  2  0  0  0
  5  8  1  0  0  0
  6 39  1  0  0  0
  7 40  1  0  0  0
  7 41  1  0  0  0
  8  9  2  0  0  0
  8 10  2  0  0  0
  8 11  1  0  0  0
 11 12  1  0  0  0
 11 16  1  0  0  0
 12 13  1  0  0  0
 12 42  1  0  0  0
 12 43  1  0  0  0
 13 14  1  0  0  0
 13 15  1  0  0  0
 13 44  1  0  0  0
 14 45  1  0  0  0
 14 46  1  0  0  0
 14 47  1  0  0  0
 15 48  1  0  0  0
 15 49  1  0  0  0
 15 50  1  0  0  0
 16 17  1  0  0  0
 16 51  1  0  0  0
 16 52  1  0  0  0
 17 18  1  0  0  0
 17 19  1  0  0  0
 17 53  1  0  0  0
 18 54  1  0  0  0
 19 20  1  0  0  0
 19 21  1  0  0  0
 19 55  1  0  0  0
 20 22  1  0  0  0
 20 56  1  0  0  0
 20 57  1  0  0  0
 21 28  1  0  0  0
 21 58  1  0  0  0
 22 23  2  0  0  0
 22 27  1  0  0  0
 23 24  1  0  0  0
 23 59  1  0  0  0
 24 25  2  0  0  0
 24 60  1  0  0  0
 25 26  1  0  0  0
 25 61  1  0  0  0
 26 27  2  0  0  0
 26 62  1  0  0  0
 27 63  1  0  0  0
 28 29  1  0  0  0
 28 30  2  0  0  0
 29 31  1  0  0  0
 31 32  1  0  0  0
 31 35  1  0  0  0
 31 64  1  0  0  0
 32 33  1  0  0  0
 32 65  1  0  0  0
 32 66  1  0  0  0
 33 34  1  0  0  0
 34 35  1  0  0  0
 34 67  1  0  0  0
 34 68  1  0  0  0
 35 69  1  0  0  0
 35 70  1  0  0  0
M  END
> <i_epik_Tot_Q>
0

> <i_epik_Tot_abs_Q>
0

> <i_f3d_flags>
0

> <i_i_glide_confnum>
669

> <i_i_glide_lignum>
1

> <i_i_glide_posenum>
347

> <i_i_glide_rotatable_bonds>
14

> <i_lp_mmshare_version>
65135

> <i_m_Source_File_Index>
1

> <i_m_source_file_index>
1

> <b_lp_Chiralities_Consistent>
1

> <b_m_subgroup_collapsed>
0

> <r_epik_Charging_Adjusted_Penalty>
0

> <r_epik_Ionization_Penalty>
0

> <r_epik_Ionization_Penalty_Charging>
0

> <r_epik_Ionization_Penalty_Neutral>
0

> <r_epik_State_Penalty>
0

> <r_i_docking_score>
-4.25233

> <r_i_glide_ecoul>
-8.02101

> <r_i_glide_eff_state_penalty>
0

> <r_i_glide_einternal>
10.7371

> <r_i_glide_emodel>
-43.8176

> <r_i_glide_energy>
-38.0419

> <r_i_glide_erotb>
0.800072

> <r_i_glide_esite>
-0.0287309

> <r_i_glide_evdw>
-30.0209

> <r_i_glide_gscore>
-4.25233

> <r_i_glide_hbond>
-0.433424

> <r_i_glide_ligand_efficiency>
-0.121495

> <r_i_glide_ligand_efficiency_ln>
-0.933482

> <r_i_glide_ligand_efficiency_sa>
-0.397419

> <r_i_glide_lipo>
-1.84716

> <r_i_glide_metal>
0

> <r_i_glide_rewards>
-0.0388924

> <r_lp_Energy>
19.4315

> <r_lp_tautomer_probability>
1

> <s_epik_Chemistry_Notes>
This compound has an ester and may undergo hydrolysis at high or low pH.

> <s_epik_cmdline>
J2VwaWtfcHl0aG9uJywgJy1waCcsICc3LjAnLCAnLXRuJywgJzgnLCAnLW1hJywgJzUwMCcsICctaW1hZScsICc8aW5maWxlLm1hZT4nLCAnLW9tYWUnLCAnPG91dGZpbGUubWFlPic=

> <s_epik_input>
W05IMl1jMVtjSF1bY0hdYyhbY0hdW2NIXTEpUyg9TykoPU8pTihbQ0gyXVtDSF0oW0NIM10pW0NIM10pW0NIMl1bQ0BASF0oW09IXSlbQ0BIXShbQ0gyXWMyW2NIXVtjSF1bY0hdW2NIXVtjSF0yKVtOSF1DKD1PKU9bQ0BASF0zW0NIMl1PW0NIMl1bQ0gyXTM=

> <s_i_glide_gridfile>
glide-grid_P04587_G48V

> <s_lp_Force_Field>
S-OPLS

> <s_lp_Variant>
agenerase.sdf-1

> <s_m_Source_File>
glide-dock_SP_P04587_G48V_pv.maegz

> <s_m_Source_Path>
D:\project\glide-dock_SP_P04587_G48V

> <s_m_entry_id>
364

> <s_m_entry_name>
agenerase.1

> <s_m_job_name>
glide-dock_SP_P04587_G48V

> <s_m_source_file>
ligprep_Agenerase.maegz

> <s_m_subgroup_title>
glide-dock_SP_P04587_G48V_pv

> <s_m_subgroupid>
glide-dock_SP_P04587_G48V_pv

$$$$
