agenerase.sdf
                    3D
 Schrodinger Suite 2024-1.
 70 72  0  0  1  0            999 V2000
   11.3233  -26.1152  -19.0233 C   0  0  0  0  0  0
   10.3432  -25.8181  -19.9896 C   0  0  0  0  0  0
   10.6683  -25.0102  -21.0957 C   0  0  0  0  0  0
   11.9653  -24.4846  -21.2349 C   0  0  0  0  0  0
   12.9293  -24.7512  -20.2439 C   0  0  0  0  0  0
   12.6193  -25.5746  -19.1440 C   0  0  0  0  0  0
    9.0494  -26.3167  -19.8481 N   0  0  0  0  0  0
   14.5598  -24.0300  -20.3694 S   0  0  0  0  0  0
   15.5237  -25.0099  -19.8444 O   0  0  0  0  0  0
   14.7267  -23.4848  -21.7249 O   0  0  0  0  0  0
   14.4705  -22.7021  -19.2409 N   0  0  0  0  0  0
   14.1088  -21.3308  -19.6881 C   0  0  0  0  0  0
   12.7725  -20.7518  -19.1432 C   0  0  0  0  0  0
   12.8797  -20.0440  -17.7819 C   0  0  0  0  0  0
   11.5831  -21.7222  -19.2045 C   0  0  0  0  0  0
   14.7424  -22.9349  -17.8114 C   0  0  0  0  0  0
   16.0699  -22.2750  -17.3772 C   0  0  1  0  0  0
   15.7577  -21.0080  -16.8386 O   0  0  0  0  0  0
   16.8329  -23.0602  -16.2861 C   0  0  2  0  0  0
   18.0837  -22.3267  -15.7327 C   0  0  0  0  0  0
   17.1661  -24.4205  -16.6994 N   0  0  0  0  0  0
   18.8894  -23.1696  -14.7569 C   0  0  0  0  0  0
   20.1522  -23.6762  -15.1305 C   0  0  0  0  0  0
   20.8814  -24.4910  -14.2420 C   0  0  0  0  0  0
   20.3515  -24.7956  -12.9737 C   0  0  0  0  0  0
   19.0955  -24.2888  -12.5941 C   0  0  0  0  0  0
   18.3662  -23.4728  -13.4811 C   0  0  0  0  0  0
   18.0658  -24.7658  -17.6934 C   0  0  0  0  0  0
   18.3744  -26.0608  -17.5219 O   0  0  0  0  0  0
   18.5584  -24.0136  -18.5359 O   0  0  0  0  0  0
   19.5264  -26.6191  -18.1418 C   0  0  2  0  0  0
   19.0986  -27.7390  -19.0965 C   0  0  0  0  0  0
   19.7423  -28.9204  -18.6323 O   0  0  0  0  0  0
   19.9269  -28.7849  -17.2325 C   0  0  0  0  0  0
   20.3626  -27.3338  -17.0926 C   0  0  0  0  0  0
   11.0898  -26.7460  -18.1780 H   0  0  0  0  0  0
    9.9197  -24.7781  -21.8385 H   0  0  0  0  0  0
   12.2055  -23.8555  -22.0810 H   0  0  0  0  0  0
   13.3681  -25.7861  -18.3946 H   0  0  0  0  0  0
    8.4216  -26.3153  -20.6387 H   0  0  0  0  0  0
    8.8607  -27.0283  -19.1596 H   0  0  0  0  0  0
   14.9215  -20.6487  -19.4432 H   0  0  0  0  0  0
   14.0491  -21.3240  -20.7725 H   0  0  0  0  0  0
   12.5227  -19.9490  -19.8387 H   0  0  0  0  0  0
   13.0246  -20.7339  -16.9554 H   0  0  0  0  0  0
   13.7050  -19.3302  -17.7803 H   0  0  0  0  0  0
   11.9735  -19.4750  -17.5731 H   0  0  0  0  0  0
   11.7462  -22.6021  -18.5810 H   0  0  0  0  0  0
   10.6686  -21.2415  -18.8568 H   0  0  0  0  0  0
   11.4057  -22.0499  -20.2255 H   0  0  0  0  0  0
   13.9017  -22.6258  -17.1988 H   0  0  0  0  0  0
   14.7993  -24.0107  -17.6587 H   0  0  0  0  0  0
   16.7188  -22.1353  -18.2378 H   0  0  0  0  0  0
   16.5231  -20.4592  -16.9539 H   0  0  0  0  0  0
   16.1452  -23.1922  -15.4504 H   0  0  0  0  0  0
   18.7310  -22.0245  -16.5581 H   0  0  0  0  0  0
   17.7932  -21.4050  -15.2274 H   0  0  0  0  0  0
   16.8031  -25.1812  -16.1429 H   0  0  0  0  0  0
   20.5609  -23.4596  -16.1096 H   0  0  0  0  0  0
   21.8415  -24.8829  -14.5432 H   0  0  0  0  0  0
   20.9116  -25.4208  -12.2941 H   0  0  0  0  0  0
   18.6903  -24.5227  -11.6190 H   0  0  0  0  0  0
   17.3980  -23.0941  -13.1872 H   0  0  0  0  0  0
   20.1457  -25.8726  -18.6364 H   0  0  0  0  0  0
   18.0211  -27.8840  -19.0449 H   0  0  0  0  0  0
   19.3584  -27.5297  -20.1335 H   0  0  0  0  0  0
   20.6651  -29.4882  -16.8512 H   0  0  0  0  0  0
   18.9795  -28.9566  -16.7174 H   0  0  0  0  0  0
   21.4161  -27.2400  -17.3520 H   0  0  0  0  0  0
   20.2331  -26.9373  -16.0855 H   0  0  0  0  0  0
  1  2  2  0  0  0
  1  6  1  0  0  0
  1 36  1  0  0  0
  2  3  1  0  0  0
  2  7  1  0  0  0
  3  4  2  0  0  0
  3 37  1  0  0  0
  4  5  1  0  0  0
  4 38  1  0  0  0
  5  6  2  0  0  0
  5  8  1  0  0  0
  6 39  1  0  0  0
  7 40  1  0  0  0
  7 41  1  0  0  0
  8  9  2  0  0  0
  8 10  2  0  0  0
  8 11  1  0  0  0
 11 12  1  0  0  0
 11 16  1  0  0  0
 12 13  1  0  0  0
 12 42  1  0  0  0
 12 43  1  0  0  0
 13 14  1  0  0  0
 13 15  1  0  0  0
 13 44  1  0  0  0
 14 45  1  0  0  0
 14 46  1  0  0  0
 14 47  1  0  0  0
 15 48  1  0  0  0
 15 49  1  0  0  0
 15 50  1  0  0  0
 16 17  1  0  0  0
 16 51  1  0  0  0
 16 52  1  0  0  0
 17 18  1  0  0  0
 17 19  1  0  0  0
 17 53  1  0  0  0
 18 54  1  0  0  0
 19 20  1  0  0  0
 19 21  1  0  0  0
 19 55  1  0  0  0
 20 22  1  0  0  0
 20 56  1  0  0  0
 20 57  1  0  0  0
 21 28  1  0  0  0
 21 58  1  0  0  0
 22 23  2  0  0  0
 22 27  1  0  0  0
 23 24  1  0  0  0
 23 59  1  0  0  0
 24 25  2  0  0  0
 24 60  1  0  0  0
 25 26  1  0  0  0
 25 61  1  0  0  0
 26 27  2  0  0  0
 26 62  1  0  0  0
 27 63  1  0  0  0
 28 29  1  0  0  0
 28 30  2  0  0  0
 29 31  1  0  0  0
 31 32  1  0  0  0
 31 35  1  0  0  0
 31 64  1  0  0  0
 32 33  1  0  0  0
 32 65  1  0  0  0
 32 66  1  0  0  0
 33 34  1  0  0  0
 34 35  1  0  0  0
 34 67  1  0  0  0
 34 68  1  0  0  0
 35 69  1  0  0  0
 35 70  1  0  0  0
M  END
> <i_epik_Tot_Q>
0

> <i_epik_Tot_abs_Q>
0

> <i_f3d_flags>
0

> <i_i_glide_confnum>
498

> <i_i_glide_lignum>
1

> <i_i_glide_posenum>
150

> <i_i_glide_rotatable_bonds>
14

> <i_lp_mmshare_version>
65135

> <i_m_Source_File_Index>
1

> <i_m_source_file_index>
1

> <b_lp_Chiralities_Consistent>
1

> <b_m_subgroup_collapsed>
0

> <r_epik_Charging_Adjusted_Penalty>
0

> <r_epik_Ionization_Penalty>
0

> <r_epik_Ionization_Penalty_Charging>
0

> <r_epik_Ionization_Penalty_Neutral>
0

> <r_epik_State_Penalty>
0

> <r_i_docking_score>
-5.55719

> <r_i_glide_ecoul>
-11.0685

> <r_i_glide_eff_state_penalty>
0

> <r_i_glide_einternal>
13.5228

> <r_i_glide_emodel>
-64.5783

> <r_i_glide_energy>
-53.4672

> <r_i_glide_erotb>
0.800072

> <r_i_glide_esite>
0

> <r_i_glide_evdw>
-42.3987

> <r_i_glide_gscore>
-5.55719

> <r_i_glide_hbond>
-0.76867

> <r_i_glide_ligand_efficiency>
-0.158777

> <r_i_glide_ligand_efficiency_ln>
-1.21993

> <r_i_glide_ligand_efficiency_sa>
-0.51937

> <r_i_glide_lipo>
-1.45584

> <r_i_glide_metal>
0

> <r_i_glide_rewards>
-0.352542

> <r_lp_Energy>
19.4315

> <r_lp_tautomer_probability>
1

> <s_epik_Chemistry_Notes>
This compound has an ester and may undergo hydrolysis at high or low pH.

> <s_epik_cmdline>
J2VwaWtfcHl0aG9uJywgJy1waCcsICc3LjAnLCAnLXRuJywgJzgnLCAnLW1hJywgJzUwMCcsICctaW1hZScsICc8aW5maWxlLm1hZT4nLCAnLW9tYWUnLCAnPG91dGZpbGUubWFlPic=

> <s_epik_input>
W05IMl1jMVtjSF1bY0hdYyhbY0hdW2NIXTEpUyg9TykoPU8pTihbQ0gyXVtDSF0oW0NIM10pW0NIM10pW0NIMl1bQ0BASF0oW09IXSlbQ0BIXShbQ0gyXWMyW2NIXVtjSF1bY0hdW2NIXVtjSF0yKVtOSF1DKD1PKU9bQ0BASF0zW0NIMl1PW0NIMl1bQ0gyXTM=

> <s_i_glide_gridfile>
glide-grid_P04587_G38V_L90M

> <s_lp_Force_Field>
S-OPLS

> <s_lp_Variant>
agenerase.sdf-1

> <s_m_Source_File>
glide-dock_SP_P04587_G38V_L90M_pv.maegz

> <s_m_Source_Path>
D:\project\glide-dock_SP_P04587_G38V_L90M

> <s_m_entry_id>
355

> <s_m_entry_name>
agenerase.1

> <s_m_job_name>
glide-dock_SP_P04587_G38V_L90M

> <s_m_source_file>
ligprep_Agenerase.maegz

> <s_m_subgroup_title>
glide-dock_SP_P04587_G48V_L90M_pv

> <s_m_subgroupid>
glide-dock_SP_P04587_G38V_L90M_pv

$$$$
