agenerase.sdf
                    3D
 Schrodinger Suite 2024-1.
 70 72  0  0  1  0            999 V2000
    2.3647   12.0193    8.6463 C   0  0  0  0  0  0
    1.9736   12.2223    7.3076 C   0  0  0  0  0  0
    2.7703   13.0205    6.4587 C   0  0  0  0  0  0
    3.9445   13.6288    6.9501 C   0  0  0  0  0  0
    4.3166   13.4421    8.2935 C   0  0  0  0  0  0
    3.5322   12.6320    9.1404 C   0  0  0  0  0  0
    0.7809   11.6764    6.8393 N   0  0  0  0  0  0
    5.7824   14.2217    8.9724 S   0  0  0  0  0  0
    5.5650   14.3521   10.4214 O   0  0  0  0  0  0
    6.9426   13.4640    8.4795 O   0  0  0  0  0  0
    5.8176   15.8410    8.3023 N   0  0  0  0  0  0
    5.1370   16.8478    9.1642 C   0  0  0  0  0  0
    4.9695   18.3018    8.6458 C   0  0  0  0  0  0
    4.3468   18.4011    7.2488 C   0  0  0  0  0  0
    6.1730   19.2418    8.8799 C   0  0  0  0  0  0
    6.9989   16.2888    7.5122 C   0  0  0  0  0  0
    7.2575   15.4908    6.2041 C   0  0  1  0  0  0
    6.1582   15.7379    5.3452 O   0  0  0  0  0  0
    8.5207   15.9079    5.3879 C   0  0  2  0  0  0
    8.9263   14.8003    4.3863 C   0  0  0  0  0  0
    9.6616   16.3820    6.1728 N   0  0  0  0  0  0
    9.8789   15.2484    3.2935 C   0  0  0  0  0  0
   11.1439   14.6395    3.1624 C   0  0  0  0  0  0
   11.9859   14.9824    2.0875 C   0  0  0  0  0  0
   11.5596   15.9272    1.1386 C   0  0  0  0  0  0
   10.3073   16.5586    1.2788 C   0  0  0  0  0  0
    9.4706   16.2203    2.3580 C   0  0  0  0  0  0
   10.3044   15.6730    7.1678 C   0  0  0  0  0  0
   11.2991   16.4334    7.6429 O   0  0  0  0  0  0
   10.0053   14.5565    7.5860 O   0  0  0  0  0  0
   12.0122   16.0416    8.8103 C   0  0  2  0  0  0
   12.6647   17.2800    9.4440 C   0  0  0  0  0  0
   14.0264   16.9321    9.6448 O   0  0  0  0  0  0
   14.3983   16.0551    8.5963 C   0  0  0  0  0  0
   13.1912   15.1345    8.4746 C   0  0  0  0  0  0
    1.7637   11.4082    9.3039 H   0  0  0  0  0  0
    2.4761   13.1821    5.4315 H   0  0  0  0  0  0
    4.5351   14.2488    6.3021 H   0  0  0  0  0  0
    3.8191   12.4835   10.1705 H   0  0  0  0  0  0
    0.3657   12.0824    6.0085 H   0  0  0  0  0  0
    0.1176   11.3175    7.5083 H   0  0  0  0  0  0
    4.1445   16.4545    9.3909 H   0  0  0  0  0  0
    5.6577   16.8856   10.1205 H   0  0  0  0  0  0
    4.2106   18.7247    9.3099 H   0  0  0  0  0  0
    4.8552   17.7867    6.5100 H   0  0  0  0  0  0
    3.3047   18.0788    7.2791 H   0  0  0  0  0  0
    4.3650   19.4222    6.8761 H   0  0  0  0  0  0
    6.9811   19.1316    8.1638 H   0  0  0  0  0  0
    5.8567   20.2825    8.8219 H   0  0  0  0  0  0
    6.5975   19.0978    9.8717 H   0  0  0  0  0  0
    6.9007   17.3189    7.2032 H   0  0  0  0  0  0
    7.8554   16.2496    8.1832 H   0  0  0  0  0  0
    7.3163   14.4221    6.3896 H   0  0  0  0  0  0
    6.2586   15.2185    4.5620 H   0  0  0  0  0  0
    8.2418   16.7916    4.8160 H   0  0  0  0  0  0
    9.3508   13.9438    4.9083 H   0  0  0  0  0  0
    8.0391   14.4159    3.8838 H   0  0  0  0  0  0
   10.0301   17.3041    5.9849 H   0  0  0  0  0  0
   11.4611   13.8838    3.8683 H   0  0  0  0  0  0
   12.9498   14.5026    1.9805 H   0  0  0  0  0  0
   12.1883   16.1646    0.2946 H   0  0  0  0  0  0
    9.9732   17.2851    0.5556 H   0  0  0  0  0  0
    8.4985   16.6835    2.4434 H   0  0  0  0  0  0
   11.3433   15.5571    9.5263 H   0  0  0  0  0  0
   12.6238   18.1360    8.7701 H   0  0  0  0  0  0
   12.1869   17.5692   10.3789 H   0  0  0  0  0  0
   15.3190   15.5180    8.8251 H   0  0  0  0  0  0
   14.5550   16.6219    7.6800 H   0  0  0  0  0  0
   13.2634   14.3448    9.2224 H   0  0  0  0  0  0
   13.1167   14.6634    7.4961 H   0  0  0  0  0  0
  1  2  2  0  0  0
  1  6  1  0  0  0
  1 36  1  0  0  0
  2  3  1  0  0  0
  2  7  1  0  0  0
  3  4  2  0  0  0
  3 37  1  0  0  0
  4  5  1  0  0  0
  4 38  1  0  0  0
  5  6  2  0  0  0
  5  8  1  0  0  0
  6 39  1  0  0  0
  7 40  1  0  0  0
  7 41  1  0  0  0
  8  9  2  0  0  0
  8 10  2  0  0  0
  8 11  1  0  0  0
 11 12  1  0  0  0
 11 16  1  0  0  0
 12 13  1  0  0  0
 12 42  1  0  0  0
 12 43  1  0  0  0
 13 14  1  0  0  0
 13 15  1  0  0  0
 13 44  1  0  0  0
 14 45  1  0  0  0
 14 46  1  0  0  0
 14 47  1  0  0  0
 15 48  1  0  0  0
 15 49  1  0  0  0
 15 50  1  0  0  0
 16 17  1  0  0  0
 16 51  1  0  0  0
 16 52  1  0  0  0
 17 18  1  0  0  0
 17 19  1  0  0  0
 17 53  1  0  0  0
 18 54  1  0  0  0
 19 20  1  0  0  0
 19 21  1  0  0  0
 19 55  1  0  0  0
 20 22  1  0  0  0
 20 56  1  0  0  0
 20 57  1  0  0  0
 21 28  1  0  0  0
 21 58  1  0  0  0
 22 23  2  0  0  0
 22 27  1  0  0  0
 23 24  1  0  0  0
 23 59  1  0  0  0
 24 25  2  0  0  0
 24 60  1  0  0  0
 25 26  1  0  0  0
 25 61  1  0  0  0
 26 27  2  0  0  0
 26 62  1  0  0  0
 27 63  1  0  0  0
 28 29  1  0  0  0
 28 30  2  0  0  0
 29 31  1  0  0  0
 31 32  1  0  0  0
 31 35  1  0  0  0
 31 64  1  0  0  0
 32 33  1  0  0  0
 32 65  1  0  0  0
 32 66  1  0  0  0
 33 34  1  0  0  0
 34 35  1  0  0  0
 34 67  1  0  0  0
 34 68  1  0  0  0
 35 69  1  0  0  0
 35 70  1  0  0  0
M  END
> <Tot Q>
0

> <flags>
0

> <subgroup collapsed>
0

> <Ionization Penalty>
0

> <State Penalty>
0

> <docking score>
-4.21272

> <glide emodel>
-47.9926

> <glide gscore>
-4.21272

> <tautomer probability>
1

> <entry id>
2

> <subgroup title>
glide-dock_SP_P04587_WT_pv

> <subgroupid>
glide-dock_SP_P04587_WT_pv

$$$$
