lig_tnks2_8a
                    3D
 Schrodinger Suite 2020-3.
 44 47  0  0  1  0            999 V2000
  -38.2237  -11.4441    2.3203 C   0  0  0  0  0  0
  -38.4067  -10.8256    3.6295 N   0  0  0  0  0  0
  -37.2359  -11.0540    4.4776 C   0  0  0  0  0  0
  -37.4049  -10.3884    5.8650 C   0  0  0  0  0  0
  -38.6314  -10.8040    6.5476 N   0  0  0  0  0  0
  -38.6957  -11.0144    7.9130 C   0  0  0  0  0  0
  -39.3566  -12.1423    8.3875 C   0  0  0  0  0  0
  -39.3734  -12.4251    9.7465 C   0  0  0  0  0  0
  -38.8117  -11.5382   10.6780 C   0  0  0  0  0  0
  -38.8772  -11.8325   12.1349 C   0  0  0  0  0  0
  -39.6662  -12.8951   12.5553 N   0  0  0  0  0  0
  -39.7729  -13.2743   13.8888 C   0  0  0  0  0  0
  -40.5745  -14.3466   14.2667 C   0  0  0  0  0  0
  -40.7016  -14.6636   15.6180 C   0  0  0  0  0  0
  -40.0232  -13.9165   16.5815 C   0  0  0  0  0  0
  -40.1733  -14.2301   17.8864 F   0  0  0  0  0  0
  -39.1928  -12.8559   16.1984 C   0  0  0  0  0  0
  -39.0625  -12.5356   14.8372 C   0  0  0  0  0  0
  -38.1628  -11.4060   14.3664 C   0  0  0  0  0  0
  -37.4332  -10.8256   15.1729 O   0  0  0  0  0  0
  -38.2139  -11.1390   12.9936 N   0  0  0  0  0  0
  -38.1722  -10.3865   10.1932 C   0  0  0  0  0  0
  -38.0898  -10.1412    8.8218 C   0  0  0  0  0  0
  -39.8168  -10.7227    5.6820 C   0  0  0  0  0  0
  -39.6044  -11.3468    4.2845 C   0  0  0  0  0  0
  -40.1605  -13.4380   11.8702 H   0  0  0  0  0  0
  -37.3493  -11.0277    1.8189 H   0  0  0  0  0  0
  -39.0859  -11.2516    1.6805 H   0  0  0  0  0  0
  -38.0874  -12.5243    2.3961 H   0  0  0  0  0  0
  -37.0510  -12.1241    4.5995 H   0  0  0  0  0  0
  -36.3536  -10.6354    3.9897 H   0  0  0  0  0  0
  -37.3727   -9.3022    5.7899 H   0  0  0  0  0  0
  -36.5723  -10.6781    6.4966 H   0  0  0  0  0  0
  -39.8152  -12.8324    7.6947 H   0  0  0  0  0  0
  -39.8520  -13.3443   10.0472 H   0  0  0  0  0  0
  -41.1126  -14.9148   13.5229 H   0  0  0  0  0  0
  -41.3367  -15.4800   15.9252 H   0  0  0  0  0  0
  -38.6704  -12.2910   16.9584 H   0  0  0  0  0  0
  -37.7205   -9.6785   10.8743 H   0  0  0  0  0  0
  -37.5745   -9.2595    8.4701 H   0  0  0  0  0  0
  -40.0823   -9.6706    5.5695 H   0  0  0  0  0  0
  -40.6738  -11.1860    6.1678 H   0  0  0  0  0  0
  -40.4751  -11.1332    3.6637 H   0  0  0  0  0  0
  -39.5401  -12.4260    4.3721 H   0  0  0  0  0  0
  1  2  1  0  0  0
  1 27  1  0  0  0
  1 28  1  0  0  0
  1 29  1  0  0  0
  2 25  1  0  0  0
  2  3  1  0  0  0
  3  4  1  0  0  0
  3 30  1  0  0  0
  3 31  1  0  0  0
  4  5  1  0  0  0
  4 32  1  0  0  0
  4 33  1  0  0  0
  5  6  1  0  0  0
  5 24  1  0  0  0
  6 23  1  0  0  0
  6  7  2  0  0  0
  7  8  1  0  0  0
  7 34  1  0  0  0
  8  9  2  0  0  0
  8 35  1  0  0  0
  9 22  1  0  0  0
  9 10  1  0  0  0
 10 11  1  0  0  0
 10 21  2  0  0  0
 11 12  1  0  0  0
 11 26  1  0  0  0
 12 18  2  0  0  0
 12 13  1  0  0  0
 13 14  2  0  0  0
 13 36  1  0  0  0
 14 15  1  0  0  0
 14 37  1  0  0  0
 15 17  2  0  0  0
 15 16  1  0  0  0
 17 18  1  0  0  0
 17 38  1  0  0  0
 18 19  1  0  0  0
 19 20  2  0  0  0
 19 21  1  0  0  0
 22 23  2  0  0  0
 22 39  1  0  0  0
 23 40  1  0  0  0
 24 25  1  0  0  0
 24 41  1  0  0  0
 24 42  1  0  0  0
 25 43  1  0  0  0
 25 44  1  0  0  0
M  END
> <s_m_source_file>
/home/user-home/yujie/0_PBCNetv2/data/FEP/tnks2/inp_ligprep.csv

> <i_m_source_file_index>
15

> <i_lp_mmshare_version>
51139

> <i_f3d_flags>
0

> <s_epik_input>
W0NIM11OMVtDSDJdW0NIMl1OKFtDSDJdW0NIMl0xKWMyW2NIXVtjSF1jKFtjSF1bY0hdMiktYyhuMylbbkhdYyg9TyljKGMzNClbY0hdYyhGKVtjSF1bY0hdNA==

> <s_epik_cmdline>
J2VwaWtfcHl0aG9uJywgJy1waHQnLCAnMi4wJywgJy1waCcsICc3LjQnLCAnLXRuJywgJzgnLCAnLW1hJywgJzIwMCcsICctaW1hZScsICc8aW5maWxlLm1hZT4nLCAnLW9tYWUnLCAnPG91dGZpbGUubWFlPic=

> <r_lp_tautomer_probability>
0.116051

> <r_epik_Ionization_Penalty>
  1.4190

> <r_epik_Ionization_Penalty_Charging>
  0.5340

> <r_epik_Ionization_Penalty_Neutral>
  0.8850

> <r_epik_State_Penalty>
  2.3339

> <r_epik_Charging_Adjusted_Penalty>
2.86788

> <i_epik_Tot_Q>
0

> <i_epik_Tot_abs_Q>
0

> <s_lp_Force_Field>
OPLS3e

> <r_lp_Energy>
40.5097

> <b_lp_Chiralities_Consistent>
1

> <s_lp_Variant>
lig_tnks2_8a-6

> <s_i_glide_gridfile>
tnks2-001-gridgen

> <i_i_glide_lignum>
47

> <i_i_glide_rotatable_bonds>
2

> <r_i_docking_score>
-7.85047795290234

> <r_i_glide_ligand_efficiency>
-0.314019118116094

> <r_i_glide_ligand_efficiency_sa>
-0.918197470524231

> <r_i_glide_ligand_efficiency_ln>
-1.8607985346778

> <r_i_glide_gscore>
-10.1843779529023

> <r_i_glide_lipo>
-4.61750593755586

> <r_i_glide_hbond>
-0.388770334102822

> <r_i_glide_metal>
-0

> <r_i_glide_rewards>
-2.44878018912328

> <r_i_glide_evdw>
-46.4816551208496

> <r_i_glide_ecoul>
-4.90376853942871

> <r_i_glide_erotb>
0.330326544836406

> <r_i_glide_esite>
0

> <r_i_glide_emodel>
-78.7740538686048

> <r_i_glide_energy>
-51.3854236602783

> <r_i_glide_einternal>
4.2407078742981

> <i_i_glide_confnum>
27

> <i_i_glide_posenum>
355

> <r_i_glide_eff_state_penalty>
2.3339

$$$$
