lig_tnks2_8f
                    3D
 Schrodinger Suite 2020-3.
 49 52  0  0  1  0            999 V2000
  -41.3382  -15.2397   13.3722 C   0  0  0  0  0  0
  -40.5830  -14.3617   14.3597 C   0  0  0  0  0  0
  -40.6971  -14.6319   15.7258 C   0  0  0  0  0  0
  -40.0180  -13.8543   16.6614 C   0  0  0  0  0  0
  -40.1735  -14.1309   17.9734 F   0  0  0  0  0  0
  -39.1865  -12.8114   16.2445 C   0  0  0  0  0  0
  -39.0639  -12.5257   14.8748 C   0  0  0  0  0  0
  -38.1724  -11.3953   14.3851 C   0  0  0  0  0  0
  -37.4207  -10.8184   15.1735 O   0  0  0  0  0  0
  -38.2618  -11.1212   13.0169 N   0  0  0  0  0  0
  -38.9255  -11.8230   12.1686 C   0  0  0  0  0  0
  -38.9104  -11.4975   10.7167 C   0  0  0  0  0  0
  -38.4179  -10.2667   10.2507 C   0  0  0  0  0  0
  -38.4062   -9.9754    8.8873 C   0  0  0  0  0  0
  -38.8745  -10.9106    7.9592 C   0  0  0  0  0  0
  -38.8598  -10.6030    6.4567 C   0  0  2  0  0  0
  -40.2332  -10.8721    5.7929 C   0  0  0  0  0  0
  -40.2313  -10.6418    4.2776 C   0  0  0  0  0  0
  -39.0899  -11.4742    3.6482 N   0  3  1  0  0  0
  -39.0964  -11.2891    2.1143 C   0  0  0  0  0  0
  -37.7097  -11.0787    4.2240 C   0  0  0  0  0  0
  -37.7157  -11.3493    5.7357 C   0  0  0  0  0  0
  -39.3453  -12.1425    8.4168 C   0  0  0  0  0  0
  -39.3710  -12.4297    9.7745 C   0  0  0  0  0  0
  -39.6774  -12.9097   12.6041 N   0  0  0  0  0  0
  -39.7740  -13.2886   13.9440 C   0  0  0  0  0  0
  -40.1824  -13.4619   11.9326 H   0  0  0  0  0  0
  -40.7434  -15.4021   12.4731 H   0  0  0  0  0  0
  -41.5439  -16.2278   13.7902 H   0  0  0  0  0  0
  -42.2898  -14.7768   13.1018 H   0  0  0  0  0  0
  -41.3308  -15.4379   16.0719 H   0  0  0  0  0  0
  -38.6607  -12.2295   16.9914 H   0  0  0  0  0  0
  -38.0313   -9.5320   10.9446 H   0  0  0  0  0  0
  -38.0233   -9.0210    8.5588 H   0  0  0  0  0  0
  -38.6620   -9.5321    6.3758 H   0  0  0  0  0  0
  -40.5730  -11.8896    5.9817 H   0  0  0  0  0  0
  -40.9723  -10.1981    6.2217 H   0  0  0  0  0  0
  -40.0720   -9.6001    4.0089 H   0  0  0  0  0  0
  -41.1649  -10.9751    3.8220 H   0  0  0  0  0  0
  -38.9625  -10.2279    1.8926 H   0  0  0  0  0  0
  -38.2809  -11.8876    1.7009 H   0  0  0  0  0  0
  -40.0593  -11.6490    1.7445 H   0  0  0  0  0  0
  -37.5469  -10.0261    3.9916 H   0  0  0  0  0  0
  -36.9553  -11.6791    3.7087 H   0  0  0  0  0  0
  -36.7562  -11.0245    6.1350 H   0  0  0  0  0  0
  -37.7969  -12.4250    5.8960 H   0  0  0  0  0  0
  -39.6997  -12.8892    7.7258 H   0  0  0  0  0  0
  -39.7397  -13.4025   10.0664 H   0  0  0  0  0  0
  -39.2502  -12.4516    3.8618 H   0  0  0  0  0  0
  1 28  1  0  0  0
  1 29  1  0  0  0
  1 30  1  0  0  0
  1  2  1  0  0  0
  2  3  2  0  0  0
  2 26  1  0  0  0
  3  4  1  0  0  0
  3 31  1  0  0  0
  4  6  2  0  0  0
  4  5  1  0  0  0
  6  7  1  0  0  0
  6 32  1  0  0  0
  7  8  1  0  0  0
  7 26  2  0  0  0
  8  9  2  0  0  0
  8 10  1  0  0  0
 10 11  2  0  0  0
 11 25  1  0  0  0
 11 12  1  0  0  0
 12 24  1  0  0  0
 12 13  2  0  0  0
 13 14  1  0  0  0
 13 33  1  0  0  0
 14 15  2  0  0  0
 14 34  1  0  0  0
 15 16  1  0  0  0
 15 23  1  0  0  0
 16 22  1  0  0  0
 16 17  1  0  0  0
 16 35  1  0  0  0
 17 18  1  0  0  0
 17 36  1  0  0  0
 17 37  1  0  0  0
 18 19  1  0  0  0
 18 38  1  0  0  0
 18 39  1  0  0  0
 19 20  1  0  0  0
 19 21  1  0  0  0
 19 49  1  0  0  0
 20 40  1  0  0  0
 20 41  1  0  0  0
 20 42  1  0  0  0
 21 22  1  0  0  0
 21 43  1  0  0  0
 21 44  1  0  0  0
 22 45  1  0  0  0
 22 46  1  0  0  0
 23 24  2  0  0  0
 23 47  1  0  0  0
 24 48  1  0  0  0
 25 26  1  0  0  0
 25 27  1  0  0  0
M  CHG  1  19   1
M  END
> <s_m_source_file>
/home/user-home/yujie/0_PBCNetv2/data/FEP/tnks2/inp_ligprep.csv

> <i_m_source_file_index>
6

> <i_lp_mmshare_version>
51139

> <i_f3d_flags>
0

> <s_epik_input>
RmMoW2NIXTEpW2NIXWMoW0NIM10pYyhjMTIpbmMoW25IXWMyPU8pLWMzW2NIXVtjSF1jKFtjSF1bY0hdMylbQ0hdNFtDSDJdW0NIMl1OKFtDSDNdKVtDSDJdW0NIMl00

> <s_epik_cmdline>
J2VwaWtfcHl0aG9uJywgJy1waHQnLCAnMi4wJywgJy1waCcsICc3LjQnLCAnLXRuJywgJzgnLCAnLW1hJywgJzIwMCcsICctaW1hZScsICc8aW5maWxlLm1hZT4nLCAnLW9tYWUnLCAnPG91dGZpbGUubWFlPic=

> <r_lp_tautomer_probability>
0.116051

> <r_epik_Ionization_Penalty>
  0.2327

> <r_epik_Ionization_Penalty_Charging>
  0.2327

> <r_epik_Ionization_Penalty_Neutral>
  0.0000

> <r_epik_State_Penalty>
  1.4487

> <r_epik_Charging_Adjusted_Penalty>
1.68143

> <i_epik_Tot_Q>
1

> <i_epik_Tot_abs_Q>
1

> <s_lp_Force_Field>
OPLS3e

> <r_lp_Energy>
40.3199

> <b_lp_Chiralities_Consistent>
1

> <s_lp_Variant>
lig_tnks2_8f-2

> <s_i_glide_gridfile>
tnks2-001-gridgen

> <i_i_glide_lignum>
17

> <i_i_glide_rotatable_bonds>
2

> <r_i_docking_score>
-8.59692879447791

> <r_i_glide_ligand_efficiency>
-0.33065110747992

> <r_i_glide_ligand_efficiency_sa>
-0.979552604859979

> <r_i_glide_ligand_efficiency_ln>
-2.01896051855895

> <r_i_glide_gscore>
-10.0456387944779

> <r_i_glide_lipo>
-4.87790197640599

> <r_i_glide_hbond>
-0.399625913619457

> <r_i_glide_metal>
-0

> <r_i_glide_rewards>
-2.1001159684774

> <r_i_glide_evdw>
-46.3654251098633

> <r_i_glide_ecoul>
-4.38025093078613

> <r_i_glide_erotb>
0.307313959136026

> <r_i_glide_esite>
0

> <r_i_glide_emodel>
-77.8223566679169

> <r_i_glide_energy>
-50.7456760406494

> <r_i_glide_einternal>
0.764891862869263

> <i_i_glide_confnum>
10

> <i_i_glide_posenum>
61

> <r_i_glide_eff_state_penalty>
1.44871

$$$$
