lig_tnks2_5l
                    3D
 Schrodinger Suite 2020-3.
 37 39  0  0  1  0            999 V2000
  -37.3750  -10.0257    5.9733 C   0  0  0  0  0  0
  -38.7358  -10.5614    6.4584 C   0  0  0  0  0  0
  -39.9263   -9.6395    6.1671 C   0  0  0  0  0  0
  -38.9514  -11.6561    5.6072 O   0  0  0  0  0  0
  -38.7343  -10.9311    7.9491 C   0  0  0  0  0  0
  -38.2069  -10.0418    8.8922 C   0  0  0  0  0  0
  -38.2588  -10.3390   10.2504 C   0  0  0  0  0  0
  -38.8437  -11.5351   10.6926 C   0  0  0  0  0  0
  -38.9270  -11.8742   12.1273 C   0  0  0  0  0  0
  -39.6627  -12.8267   12.5861 N   0  0  0  0  0  0
  -39.6996  -13.1612   13.9476 C   0  0  0  0  0  0
  -40.5114  -14.2229   14.3682 C   0  0  0  0  0  0
  -41.2246  -14.9583   13.4805 F   0  0  0  0  0  0
  -40.6035  -14.5208   15.7271 C   0  0  0  0  0  0
  -39.8923  -13.7641   16.6599 C   0  0  0  0  0  0
  -39.0686  -12.7154   16.2470 C   0  0  0  0  0  0
  -38.3901  -12.0008   17.1731 F   0  0  0  0  0  0
  -38.9743  -12.4194   14.8856 C   0  0  0  0  0  0
  -38.1050  -11.2964   14.3751 C   0  0  0  0  0  0
  -37.3734  -10.5643   15.0380 O   0  0  0  0  0  0
  -38.1778  -11.1619   13.0332 N   0  0  0  0  0  0
  -39.3648  -12.4253    9.7429 C   0  0  0  0  0  0
  -39.3146  -12.1246    8.3882 C   0  0  0  0  0  0
  -37.5481  -10.4593   12.6776 H   0  0  0  0  0  0
  -37.1588   -9.0368    6.3745 H   0  0  0  0  0  0
  -37.3264   -9.9451    4.8869 H   0  0  0  0  0  0
  -36.5734  -10.6972    6.2712 H   0  0  0  0  0  0
  -39.7530   -8.6197    6.5094 H   0  0  0  0  0  0
  -40.1583   -9.6226    5.0980 H   0  0  0  0  0  0
  -40.8310  -10.0022    6.6602 H   0  0  0  0  0  0
  -38.1665  -12.2078    5.6300 H   0  0  0  0  0  0
  -37.7703   -9.1037    8.5825 H   0  0  0  0  0  0
  -37.8462   -9.6205   10.9432 H   0  0  0  0  0  0
  -41.2440  -15.3254   16.0603 H   0  0  0  0  0  0
  -39.9853  -13.9889   17.7136 H   0  0  0  0  0  0
  -39.8083  -13.3627   10.0456 H   0  0  0  0  0  0
  -39.7484  -12.8246    7.6883 H   0  0  0  0  0  0
  1  2  1  0  0  0
  1 25  1  0  0  0
  1 26  1  0  0  0
  1 27  1  0  0  0
  2  3  1  0  0  0
  2  4  1  0  0  0
  2  5  1  0  0  0
  3 28  1  0  0  0
  3 29  1  0  0  0
  3 30  1  0  0  0
  4 31  1  0  0  0
  5 23  1  0  0  0
  5  6  2  0  0  0
  6  7  1  0  0  0
  6 32  1  0  0  0
  7  8  2  0  0  0
  7 33  1  0  0  0
  8  9  1  0  0  0
  8 22  1  0  0  0
  9 21  1  0  0  0
  9 10  2  0  0  0
 10 11  1  0  0  0
 11 18  2  0  0  0
 11 12  1  0  0  0
 12 13  1  0  0  0
 12 14  2  0  0  0
 14 15  1  0  0  0
 14 34  1  0  0  0
 15 16  2  0  0  0
 15 35  1  0  0  0
 16 17  1  0  0  0
 16 18  1  0  0  0
 18 19  1  0  0  0
 19 20  2  0  0  0
 19 21  1  0  0  0
 21 24  1  0  0  0
 22 23  2  0  0  0
 22 36  1  0  0  0
 23 37  1  0  0  0
M  END
> <s_m_source_file>
/home/user-home/yujie/0_PBCNetv2/data/FEP/tnks2/inp_ligprep.csv

> <i_m_source_file_index>
24

> <i_lp_mmshare_version>
51139

> <i_f3d_flags>
0

> <s_epik_input>
W0NIM11DKFtDSDNdKShbT0hdKWMxW2NIXVtjSF1jKFtjSF1bY0hdMSktYyhuMilbbkhdYyg9TyljKGMyMyljKEYpW2NIXVtjSF1jM0Y=

> <s_epik_cmdline>
J2VwaWtfcHl0aG9uJywgJy1waHQnLCAnMi4wJywgJy1waCcsICc3LjQnLCAnLXRuJywgJzgnLCAnLW1hJywgJzIwMCcsICctaW1hZScsICc8aW5maWxlLm1hZT4nLCAnLW9tYWUnLCAnPG91dGZpbGUubWFlPic=

> <r_lp_tautomer_probability>
0.883938

> <r_epik_Ionization_Penalty>
  0.0862

> <r_epik_Ionization_Penalty_Charging>
  0.0862

> <r_epik_Ionization_Penalty_Neutral>
  0.0000

> <r_epik_State_Penalty>
  0.1420

> <r_epik_Charging_Adjusted_Penalty>
0.228176

> <i_epik_Tot_Q>
0

> <i_epik_Tot_abs_Q>
0

> <s_lp_Force_Field>
OPLS3e

> <r_lp_Energy>
21.0075

> <b_lp_Chiralities_Consistent>
1

> <s_lp_Variant>
lig_tnks2_5l-1

> <s_i_glide_gridfile>
tnks2-001-gridgen

> <i_i_glide_lignum>
72

> <i_i_glide_rotatable_bonds>
3

> <r_i_docking_score>
-11.393912701305

> <r_i_glide_ligand_efficiency>
-0.495387508752393

> <r_i_glide_ligand_efficiency_sa>
-1.40881617689941

> <r_i_glide_ligand_efficiency_ln>
-2.7551514054639

> <r_i_glide_gscore>
-11.535870701305

> <r_i_glide_lipo>
-4.31085131191737

> <r_i_glide_hbond>
-0.729218800697569

> <r_i_glide_metal>
-0

> <r_i_glide_rewards>
-3.45223989406646

> <r_i_glide_evdw>
-42.6939849853516

> <r_i_glide_ecoul>
-7.79564619064331

> <r_i_glide_erotb>
0.260485483240439

> <r_i_glide_esite>
0

> <r_i_glide_emodel>
-83.1753110915729

> <r_i_glide_energy>
-50.4896311759949

> <r_i_glide_einternal>
0.834729969501495

> <i_i_glide_confnum>
4

> <i_i_glide_posenum>
50

> <r_i_glide_eff_state_penalty>
0.141958

$$$$
