lig_tnks2_3b
                    3D
 Schrodinger Suite 2020-3.
 56 58  0  0  1  0            999 V2000
  -37.0550   -9.7806    5.7709 C   0  0  0  0  0  0
  -38.3044  -10.5460    6.2203 C   0  0  0  0  0  0
  -39.6349   -9.8419    5.8387 C   0  0  0  0  0  0
  -38.2136  -11.8410    5.3997 C   0  0  0  0  0  0
  -38.2098  -10.7812    7.7700 C   0  0  2  0  0  0
  -39.1228  -11.9069    8.3040 C   0  0  0  0  0  0
  -38.8355  -12.1600    9.7903 C   0  0  0  0  0  0
  -39.1672  -10.9049   10.6376 C   0  0  1  0  0  0
  -39.0504  -11.1106   12.1724 C   0  0  2  0  0  0
  -37.7198  -11.2950   12.7311 N   0  0  2  0  0  0
  -37.5772  -11.5479   14.1693 C   0  0  1  0  0  0
  -37.7736  -10.4079   14.9600 O   0  0  0  0  0  0
  -38.4913  -12.7165   14.6372 C   0  0  1  0  0  0
  -38.5795  -12.9856   16.1713 C   0  0  0  0  0  0
  -39.6087  -14.0871   16.5520 C   0  0  2  0  0  0
  -39.2494  -15.2255   15.9731 F   0  0  0  0  0  0
  -40.9774  -13.8406   15.9239 C   0  0  0  0  0  0
  -40.8280  -13.7359   14.3907 C   0  0  0  0  0  0
  -39.8734  -12.5851   14.0386 C   0  0  2  0  0  0
  -39.7734  -12.4214   12.5168 N   0  3  0  0  0  0
  -38.2737   -9.7447   10.1280 C   0  0  0  0  0  0
  -38.4839   -9.4993    8.6193 C   0  0  0  0  0  0
  -37.0304   -9.6258    4.6952 H   0  0  0  0  0  0
  -36.1734  -10.3850    5.9731 H   0  0  0  0  0  0
  -36.9563   -8.8258    6.2780 H   0  0  0  0  0  0
  -40.5006  -10.3793    6.2262 H   0  0  0  0  0  0
  -39.6972   -8.8247    6.2251 H   0  0  0  0  0  0
  -39.7735   -9.7849    4.7582 H   0  0  0  0  0  0
  -39.1026  -12.4256    5.5340 H   0  0  0  0  0  0
  -38.1423  -11.6509    4.3271 H   0  0  0  0  0  0
  -37.3409  -12.4257    5.6822 H   0  0  0  0  0  0
  -37.1768  -11.0494    8.0055 H   0  0  0  0  0  0
  -40.1734  -11.6817    8.1210 H   0  0  0  0  0  0
  -38.9429  -12.8256    7.7568 H   0  0  0  0  0  0
  -37.7921  -12.4257    9.9566 H   0  0  0  0  0  0
  -39.4134  -13.0305   10.0992 H   0  0  0  0  0  0
  -40.2025  -10.6359   10.4199 H   0  0  0  0  0  0
  -39.5753  -10.3053   12.6930 H   0  0  0  0  0  0
  -37.0501  -10.5964   12.3943 H   0  0  0  0  0  0
  -36.5406  -11.8357   14.3391 H   0  0  0  0  0  0
  -38.6947  -10.1419   14.8892 H   0  0  0  0  0  0
  -38.1733  -13.6257   14.1787 H   0  0  0  0  0  0
  -37.5960  -13.2088   16.5881 H   0  0  0  0  0  0
  -38.8675  -12.0725   16.6949 H   0  0  0  0  0  0
  -39.6810  -14.2370   17.6298 H   0  0  0  0  0  0
  -41.4068  -12.9448   16.3731 H   0  0  0  0  0  0
  -41.6667  -14.6418   16.1964 H   0  0  0  0  0  0
  -41.7734  -13.6257   13.8752 H   0  0  0  0  0  0
  -40.4466  -14.6690   13.9703 H   0  0  0  0  0  0
  -40.1734  -11.6222   14.4390 H   0  0  0  0  0  0
  -40.6951  -12.4053   12.1072 H   0  0  0  0  0  0
  -37.2237   -9.9544   10.3340 H   0  0  0  0  0  0
  -38.4867   -8.8288   10.6788 H   0  0  0  0  0  0
  -37.8334   -8.6868    8.3010 H   0  0  0  0  0  0
  -39.4949   -9.1271    8.4477 H   0  0  0  0  0  0
  -39.2699  -13.1919   12.1003 H   0  0  0  0  0  0
  1  2  1  0  0  0
  1 23  1  0  0  0
  1 24  1  0  0  0
  1 25  1  0  0  0
  2  3  1  0  0  0
  2  4  1  0  0  0
  2  5  1  0  0  0
  3 26  1  0  0  0
  3 27  1  0  0  0
  3 28  1  0  0  0
  4 29  1  0  0  0
  4 30  1  0  0  0
  4 31  1  0  0  0
  5 22  1  0  0  0
  5  6  1  0  0  0
  5 32  1  0  0  0
  6  7  1  0  0  0
  6 33  1  0  0  0
  6 34  1  0  0  0
  7  8  1  0  0  0
  7 35  1  0  0  0
  7 36  1  0  0  0
  8  9  1  0  0  0
  8 21  1  0  0  0
  8 37  1  0  0  0
  9 20  1  0  0  0
  9 10  1  0  0  0
  9 38  1  0  0  0
 10 11  1  0  0  0
 10 39  1  0  0  0
 11 12  1  0  0  0
 11 13  1  0  0  0
 11 40  1  0  0  0
 12 41  1  0  0  0
 13 19  1  0  0  0
 13 14  1  0  0  0
 13 42  1  0  0  0
 14 15  1  0  0  0
 14 43  1  0  0  0
 14 44  1  0  0  0
 15 16  1  0  0  0
 15 17  1  0  0  0
 15 45  1  0  0  0
 17 18  1  0  0  0
 17 46  1  0  0  0
 17 47  1  0  0  0
 18 19  1  0  0  0
 18 48  1  0  0  0
 18 49  1  0  0  0
 19 20  1  0  0  0
 19 50  1  0  0  0
 20 51  1  0  0  0
 20 56  1  0  0  0
 21 22  1  0  0  0
 21 52  1  0  0  0
 21 53  1  0  0  0
 22 54  1  0  0  0
 22 55  1  0  0  0
M  CHG  1  20   1
M  END
> <s_m_source_file>
/home/user-home/yujie/0_PBCNetv2/data/FEP/tnks2/inp_ligprep.csv

> <i_m_source_file_index>
16

> <i_lp_mmshare_version>
51139

> <i_f3d_flags>
0

> <s_epik_input>
W0NIM11DKFtDSDNdKShbQ0gzXSlbQ0BASF0xW0NIMl1bQ0gyXVtDQEhdKFtDSDJdW0NIMl0xKVtDQEhdKFtOSF1bQ0BIXTJbT0hdKVtOSF1bQ0BIXShbQ0BASF0yMylbQ0gyXVtDSDJdW0NAQEhdKEYpW0NIMl0z

> <s_epik_cmdline>
J2VwaWtfcHl0aG9uJywgJy1waHQnLCAnMi4wJywgJy1waCcsICc3LjQnLCAnLXRuJywgJzgnLCAnLW1hJywgJzIwMCcsICctaW1hZScsICc8aW5maWxlLm1hZT4nLCAnLW9tYWUnLCAnPG91dGZpbGUubWFlPic=

> <r_epik_Ionization_Penalty>
  0.0131

> <r_epik_Ionization_Penalty_Charging>
  0.0131

> <r_epik_Ionization_Penalty_Neutral>
  0.0000

> <r_epik_State_Penalty>
  0.0507

> <r_epik_Charging_Adjusted_Penalty>
0.0637947

> <i_epik_Tot_Q>
1

> <i_epik_Tot_abs_Q>
1

> <s_epik_Chemistry_Notes>
This compound contains an acetal/aminal-like group ( X-CH(R)-Y where X, Y are N, S, or O) that may be acid/base labile, releasing an aldehyde.

> <s_lp_Force_Field>
OPLS3e

> <r_lp_Energy>
24.2083

> <b_lp_Chiralities_Consistent>
1

> <s_lp_Variant>
lig_tnks2_3b-1

> <s_i_glide_gridfile>
tnks2-001-gridgen

> <i_i_glide_lignum>
48

> <i_i_glide_rotatable_bonds>
3

> <r_i_docking_score>
-8.54559210854011

> <r_i_glide_ligand_efficiency>
-0.388436004933641

> <r_i_glide_ligand_efficiency_sa>
-1.08841296214527

> <r_i_glide_ligand_efficiency_ln>
-2.08885441937301

> <r_i_glide_gscore>
-8.59624340854011

> <r_i_glide_lipo>
-3.6918883551951

> <r_i_glide_hbond>
-0.643476858317818

> <r_i_glide_metal>
-0

> <r_i_glide_rewards>
-2.57709954788907

> <r_i_glide_evdw>
-15.3015270233154

> <r_i_glide_ecoul>
-7.38484191894531

> <r_i_glide_erotb>
0.189023991869452

> <r_i_glide_esite>
0

> <r_i_glide_emodel>
-26.4613179891804

> <r_i_glide_energy>
-22.6863689422607

> <r_i_glide_einternal>
4.2185583114624

> <i_i_glide_confnum>
2

> <i_i_glide_posenum>
32

> <r_i_glide_eff_state_penalty>
0.0506513

$$$$
