lig_tnks2_8e
                    3D
 Schrodinger Suite 2020-3.
 45 48  0  0  1  0            999 V2000
  -40.2208  -10.9302    2.1875 C   0  0  0  0  0  0
  -39.8998  -11.1168    3.6863 N   0  3  2  0  0  0
  -40.7025  -10.0919    4.5214 C   0  0  0  0  0  0
  -40.3499  -10.2627    6.0107 C   0  0  0  0  0  0
  -38.8501  -10.3595    6.3649 C   0  0  1  0  0  0
  -38.6975  -10.7355    7.8459 C   0  0  0  0  0  0
  -39.1742  -11.9698    8.2917 C   0  0  0  0  0  0
  -39.1857  -12.2726    9.6465 C   0  0  0  0  0  0
  -38.7060  -11.3627   10.6060 C   0  0  0  0  0  0
  -38.7906  -11.7061   12.0669 C   0  0  0  0  0  0
  -39.4846  -12.7542   12.3956 N   0  0  0  0  0  0
  -39.6259  -13.1150   13.7487 C   0  0  0  0  0  0
  -40.4290  -14.2022   14.1119 C   0  0  0  0  0  0
  -41.0616  -14.9529   13.1788 F   0  0  0  0  0  0
  -40.5931  -14.5103   15.4624 C   0  0  0  0  0  0
  -39.9680  -13.7405   16.4442 C   0  0  0  0  0  0
  -40.1741  -14.0460   17.7437 F   0  0  0  0  0  0
  -39.1504  -12.6616   16.0896 C   0  0  0  0  0  0
  -38.9858  -12.3518   14.7340 C   0  0  0  0  0  0
  -38.1669  -11.1655   14.2435 C   0  0  0  0  0  0
  -37.5339  -10.4863   15.0563 O   0  0  0  0  0  0
  -38.1889  -10.9444   12.9280 N   0  5  0  0  0  0
  -38.1740  -10.1457   10.1397 C   0  0  0  0  0  0
  -38.1762   -9.8326    8.7782 C   0  0  0  0  0  0
  -38.0728  -11.2926    5.4074 C   0  0  0  0  0  0
  -38.3751  -11.0165    3.9207 C   0  0  0  0  0  0
  -39.9013   -9.9296    1.8896 H   0  0  0  0  0  0
  -39.6809  -11.7004    1.6338 H   0  0  0  0  0  0
  -41.2977  -11.0537    2.0622 H   0  0  0  0  0  0
  -41.7554  -10.3293    4.3525 H   0  0  0  0  0  0
  -40.5551   -9.0819    4.1384 H   0  0  0  0  0  0
  -40.7579   -9.4018    6.5415 H   0  0  0  0  0  0
  -40.8732  -11.1445    6.3675 H   0  0  0  0  0  0
  -38.4180   -9.3607    6.2764 H   0  0  0  0  0  0
  -39.5840  -12.6881    7.5971 H   0  0  0  0  0  0
  -39.5965  -13.2279    9.9441 H   0  0  0  0  0  0
  -41.2235  -15.3374   15.7518 H   0  0  0  0  0  0
  -38.6770  -12.0682   16.8594 H   0  0  0  0  0  0
  -37.7771   -9.4195   10.8366 H   0  0  0  0  0  0
  -37.8000   -8.8711    8.4599 H   0  0  0  0  0  0
  -38.2906  -12.3395    5.6163 H   0  0  0  0  0  0
  -37.0019  -11.1444    5.5566 H   0  0  0  0  0  0
  -37.9000  -11.7589    3.2763 H   0  0  0  0  0  0
  -38.0656  -10.0254    3.5931 H   0  0  0  0  0  0
  -40.1886  -12.0427    3.9734 H   0  0  0  0  0  0
  1  2  1  0  0  0
  1 27  1  0  0  0
  1 28  1  0  0  0
  1 29  1  0  0  0
  2 26  1  0  0  0
  2  3  1  0  0  0
  2 45  1  0  0  0
  3  4  1  0  0  0
  3 30  1  0  0  0
  3 31  1  0  0  0
  4  5  1  0  0  0
  4 32  1  0  0  0
  4 33  1  0  0  0
  5  6  1  0  0  0
  5 25  1  0  0  0
  5 34  1  0  0  0
  6 24  1  0  0  0
  6  7  2  0  0  0
  7  8  1  0  0  0
  7 35  1  0  0  0
  8  9  2  0  0  0
  8 36  1  0  0  0
  9 10  1  0  0  0
  9 23  1  0  0  0
 10 22  1  0  0  0
 10 11  2  0  0  0
 11 12  1  0  0  0
 12 19  2  0  0  0
 12 13  1  0  0  0
 13 14  1  0  0  0
 13 15  2  0  0  0
 15 16  1  0  0  0
 15 37  1  0  0  0
 16 17  1  0  0  0
 16 18  2  0  0  0
 18 19  1  0  0  0
 18 38  1  0  0  0
 19 20  1  0  0  0
 20 21  2  0  0  0
 20 22  1  0  0  0
 23 24  2  0  0  0
 23 39  1  0  0  0
 24 40  1  0  0  0
 25 26  1  0  0  0
 25 41  1  0  0  0
 25 42  1  0  0  0
 26 43  1  0  0  0
 26 44  1  0  0  0
M  CHG  2   2   1  22  -1
M  END
> <s_m_source_file>
/home/user-home/yujie/0_PBCNetv2/data/FEP/tnks2/inp_ligprep.csv

> <i_m_source_file_index>
22

> <i_lp_mmshare_version>
51139

> <i_f3d_flags>
0

> <s_epik_input>
W0NIM11OMVtDSDJdW0NIMl1bQ0hdKFtDSDJdW0NIMl0xKWMyW2NIXVtjSF1jKFtjSF1bY0hdMiktYyhuMylbbkhdYyg9TyljKGMzNClbY0hdYyhGKVtjSF1jNEY=

> <s_epik_cmdline>
J2VwaWtfcHl0aG9uJywgJy1waHQnLCAnMi4wJywgJy1waCcsICc3LjQnLCAnLXRuJywgJzgnLCAnLW1hJywgJzIwMCcsICctaW1hZScsICc8aW5maWxlLm1hZT4nLCAnLW9tYWUnLCAnPG91dGZpbGUubWFlPic=

> <r_epik_Ionization_Penalty>
  0.8885

> <r_epik_Ionization_Penalty_Charging>
  0.0050

> <r_epik_Ionization_Penalty_Neutral>
  0.8835

> <r_epik_State_Penalty>
  0.7739

> <r_epik_Charging_Adjusted_Penalty>
0.778906

> <i_epik_Tot_Q>
0

> <i_epik_Tot_abs_Q>
2

> <s_lp_Force_Field>
OPLS3e

> <r_lp_Energy>
68.7316

> <b_lp_Chiralities_Consistent>
1

> <s_lp_Variant>
lig_tnks2_8e-2

> <s_i_glide_gridfile>
tnks2-001-gridgen

> <i_i_glide_lignum>
67

> <i_i_glide_rotatable_bonds>
2

> <r_i_docking_score>
-9.35907786168458

> <r_i_glide_ligand_efficiency>
-0.359964533141715

> <r_i_glide_ligand_efficiency_sa>
-1.06639351304029

> <r_i_glide_ligand_efficiency_ln>
-2.19794872617737

> <r_i_glide_gscore>
-10.1330078616846

> <r_i_glide_lipo>
-4.50972750038906

> <r_i_glide_hbond>
-0.485006680855721

> <r_i_glide_metal>
-0

> <r_i_glide_rewards>
-2.34937189290191

> <r_i_glide_evdw>
-43.3061637878418

> <r_i_glide_ecoul>
-6.17582130432129

> <r_i_glide_erotb>
0.302779597502389

> <r_i_glide_esite>
0

> <r_i_glide_emodel>
-80.9558470854229

> <r_i_glide_energy>
-49.4819850921631

> <r_i_glide_einternal>
0.842156529426575

> <i_i_glide_confnum>
11

> <i_i_glide_posenum>
1

> <r_i_glide_eff_state_penalty>
0.77393

$$$$
