lig_tnks2_3a
                    3D
 Schrodinger Suite 2024-1.
 39 41  0  0  1  0            999 V2000
  -37.7542   -9.6257    6.2221 C   0  0  0  0  0  0
  -37.9408  -11.0854    6.6261 C   0  0  0  0  0  0
  -39.0131  -11.6389    5.6346 C   0  0  0  0  0  0
  -36.5734  -11.7788    6.4178 C   0  0  0  0  0  0
  -38.3384  -11.2235    8.1093 C   0  0  0  0  0  0
  -39.0447  -12.3475    8.5474 C   0  0  0  0  0  0
  -39.3046  -12.5387    9.8936 C   0  0  0  0  0  0
  -38.8363  -11.6257   10.8428 C   0  0  0  0  0  0
  -38.9734  -11.9441   12.2712 C   0  0  0  0  0  0
  -39.7299  -12.8879   12.7204 N   0  0  0  0  0  0
  -39.7570  -13.2257   14.0765 C   0  0  0  0  0  0
  -40.5734  -14.2791   14.4806 C   0  0  0  0  0  0
  -40.6665  -14.5956   15.8363 C   0  0  0  0  0  0
  -39.9359  -13.8629   16.7747 C   0  0  0  0  0  0
  -39.0987  -12.8188   16.3731 C   0  0  0  0  0  0
  -39.0213  -12.5029   15.0177 C   0  0  0  0  0  0
  -38.1367  -11.3928   14.5136 C   0  0  0  0  0  0
  -37.3734  -10.6951   15.1731 O   0  0  0  0  0  0
  -38.2211  -11.2372   13.1776 N   0  0  0  0  0  0
  -38.1734  -10.4714   10.4097 C   0  0  0  0  0  0
  -37.9220  -10.2793    9.0598 C   0  0  0  0  0  0
  -37.5835  -10.5416   12.8221 H   0  0  0  0  0  0
  -37.4652   -9.6257    5.1723 H   0  0  0  0  0  0
  -36.9734   -9.0947    6.7535 H   0  0  0  0  0  0
  -38.6728   -9.0544    6.3731 H   0  0  0  0  0  0
  -38.5986  -12.4257    5.0083 H   0  0  0  0  0  0
  -39.9106  -12.0251    6.1141 H   0  0  0  0  0  0
  -39.3870  -10.8922    4.9314 H   0  0  0  0  0  0
  -36.5734  -12.8257    6.6971 H   0  0  0  0  0  0
  -36.2360  -11.7164    5.3821 H   0  0  0  0  0  0
  -35.8077  -11.3193    7.0377 H   0  0  0  0  0  0
  -39.3734  -13.1129    7.8639 H   0  0  0  0  0  0
  -39.8052  -13.4484   10.1932 H   0  0  0  0  0  0
  -41.1445  -14.8255   13.7453 H   0  0  0  0  0  0
  -41.3141  -15.3967   16.1614 H   0  0  0  0  0  0
  -40.0229  -14.1029   17.8247 H   0  0  0  0  0  0
  -38.5344  -12.2585   17.1081 H   0  0  0  0  0  0
  -37.7979   -9.7326   11.1039 H   0  0  0  0  0  0
  -37.3613   -9.4004    8.7874 H   0  0  0  0  0  0
  1  2  1  0  0  0
  1 23  1  0  0  0
  1 24  1  0  0  0
  1 25  1  0  0  0
  2  3  1  0  0  0
  2  4  1  0  0  0
  2  5  1  0  0  0
  3 26  1  0  0  0
  3 27  1  0  0  0
  3 28  1  0  0  0
  4 29  1  0  0  0
  4 30  1  0  0  0
  4 31  1  0  0  0
  5 21  1  0  0  0
  5  6  2  0  0  0
  6  7  1  0  0  0
  6 32  1  0  0  0
  7  8  2  0  0  0
  7 33  1  0  0  0
  8  9  1  0  0  0
  8 20  1  0  0  0
  9 19  1  0  0  0
  9 10  2  0  0  0
 10 11  1  0  0  0
 11 16  2  0  0  0
 11 12  1  0  0  0
 12 13  2  0  0  0
 12 34  1  0  0  0
 13 14  1  0  0  0
 13 35  1  0  0  0
 14 15  2  0  0  0
 14 36  1  0  0  0
 15 16  1  0  0  0
 15 37  1  0  0  0
 16 17  1  0  0  0
 17 18  2  0  0  0
 17 19  1  0  0  0
 19 22  1  0  0  0
 20 21  2  0  0  0
 20 38  1  0  0  0
 21 39  1  0  0  0
M  END
> <Tot Q>
0

> <Source File Index>
69

> <i_f3d_flags>
0

> <subgroup collapsed>
0

> <Ionization Penalty>
0.0064

> <State Penalty>
0.0527

> <docking score>
-11.4238

> <glide emodel>
-78.2817

> <glide gscore>
-11.4765

> <tautomer probability>
0.883938

> <Source File>
tnks2tnks2_dock_SP_confgen_100_lib.maegz

> <Source Path>
C:\Users\yujie\Desktop\FEPs

> <entry id>
6211

> <subgroup title>
tnks2tnks2_dock_SP_confgen_100_lib

> <subgroupid>
tnks2tnks2_dock_SP_confgen_100_lib

$$$$
