1CY
                    3D
 Schrodinger Suite 2024-1.
 32 33  0  0  1  0            999 V2000
   26.5831  -31.1954    3.6982 N   0  0  0  0  0  0
   27.6251  -32.0112    3.4453 C   0  0  0  0  0  0
   28.6470  -32.0534    4.3177 N   0  3  0  0  0  0
   28.7669  -31.2658    5.4406 C   0  0  0  0  0  0
   27.8015  -30.2762    5.6277 N   0  0  0  0  0  0
   26.4703  -30.4534    4.9760 C   0  0  0  0  0  0
   27.6463  -32.7730    2.3405 N   0  0  0  0  0  0
   29.8145  -31.5641    6.1215 N   0  0  0  0  0  0
   25.7804  -29.1042    4.6525 C   0  0  0  0  0  0
   25.5194  -31.2841    5.8691 C   0  0  0  0  0  0
   27.8998  -29.2178    6.5544 C   0  0  0  0  0  0
   28.7311  -28.1153    6.2523 C   0  0  0  0  0  0
   28.8234  -27.0202    7.1340 C   0  0  0  0  0  0
   28.0557  -27.0081    8.3158 C   0  0  0  0  0  0
   27.2709  -28.1260    8.6539 C   0  0  0  0  0  0
   27.2021  -29.2310    7.7837 C   0  0  0  0  0  0
   28.0463  -25.6115    9.3287 Cl  0  0  0  0  0  0
   29.8897  -30.9603    6.9291 H   0  0  0  0  0  0
   28.4790  -33.3306    2.1297 H   0  0  0  0  0  0
   26.4464  -28.4196    4.1292 H   0  0  0  0  0  0
   24.9046  -29.2461    4.0168 H   0  0  0  0  0  0
   25.4306  -28.5963    5.5520 H   0  0  0  0  0  0
   26.0479  -32.0971    6.3671 H   0  0  0  0  0  0
   25.0413  -30.6820    6.6425 H   0  0  0  0  0  0
   24.7093  -31.7329    5.2919 H   0  0  0  0  0  0
   29.2909  -28.0981    5.3285 H   0  0  0  0  0  0
   29.4381  -26.1694    6.8781 H   0  0  0  0  0  0
   26.7090  -28.1315    9.5763 H   0  0  0  0  0  0
   26.6027  -30.0817    8.0714 H   0  0  0  0  0  0
   26.8899  -32.7584    1.6727 H   0  0  0  0  0  0
   25.8021  -31.1516    3.0586 H   0  0  0  0  0  0
   29.4022  -32.7037    4.1537 H   0  0  0  0  0  0
  1  2  1  0  0  0
  1  6  1  0  0  0
  1 31  1  0  0  0
  2  3  2  0  0  0
  2  7  1  0  0  0
  3  4  1  0  0  0
  3 32  1  0  0  0
  4  5  1  0  0  0
  4  8  2  0  0  0
  5  6  1  0  0  0
  5 11  1  0  0  0
  6  9  1  0  0  0
  6 10  1  0  0  0
  7 19  1  0  0  0
  7 30  1  0  0  0
  8 18  1  0  0  0
  9 20  1  0  0  0
  9 21  1  0  0  0
  9 22  1  0  0  0
 10 23  1  0  0  0
 10 24  1  0  0  0
 10 25  1  0  0  0
 11 12  2  0  0  0
 11 16  1  0  0  0
 12 13  1  0  0  0
 12 26  1  0  0  0
 13 14  2  0  0  0
 13 27  1  0  0  0
 14 15  1  0  0  0
 14 17  1  0  0  0
 15 16  2  0  0  0
 15 28  1  0  0  0
 16 29  1  0  0  0
M  CHG  1   3   1
M  END
> <i_epik_Tot_Q>
1

> <i_epik_Tot_abs_Q>
1

> <i_f3d_flags>
0

> <i_i_glide_confnum>
1

> <i_i_glide_lignum>
1

> <i_i_glide_posenum>
226

> <i_i_glide_rotatable_bonds>
1

> <i_lp_mmshare_version>
65135

> <i_m_Source_File_Index>
1

> <i_m_source_file_index>
1

> <i_m_stars>
0

> <i_pdb_PDB_CRYST1_z>
8

> <b_lp_Chiralities_Consistent>
1

> <b_m_subgroup_collapsed>
0

> <b_ppw_created_disulfur>
1

> <b_ppw_prepared>
1

> <r_epik_Charging_Adjusted_Penalty>
0.505082

> <r_epik_Ionization_Penalty>
0.0473

> <r_epik_Ionization_Penalty_Charging>
0.0473

> <r_epik_Ionization_Penalty_Neutral>
0

> <r_epik_State_Penalty>
0.4578

> <r_i_Bend_Energy-S-OPLS>
1075.04

> <r_i_Dihedral_Energy-S-OPLS>
1166.72

> <r_i_El-14_Energy-S-OPLS>
989.372

> <r_i_Electrostatic_Energy-S-OPLS>
-2973.45

> <r_i_LJ-14_Energy-S-OPLS>
2715.25

> <r_i_Max_Derivative-S-OPLS>
2.40366

> <r_i_Potential_Energy-S-OPLS>
-2083.24

> <r_i_RMS_Derivative-S-OPLS>
0.0991951

> <r_i_Stretch_Energy-S-OPLS>
258.056

> <r_i_Van_der_Waals_Energy-S-OPLS>
-5386.72

> <r_i_docking_score>
-6.22333

> <r_i_glide_ecoul>
-5.36661

> <r_i_glide_eff_state_penalty>
0.4578

> <r_i_glide_einternal>
0.473601

> <r_i_glide_emodel>
-47.0233

> <r_i_glide_energy>
-33.3676

> <r_i_glide_erotb>
0.274845

> <r_i_glide_esite>
-0.0143424

> <r_i_glide_evdw>
-28.001

> <r_i_glide_gscore>
-6.68113

> <r_i_glide_hbond>
0

> <r_i_glide_ligand_efficiency>
-0.366078

> <r_i_glide_ligand_efficiency_ln>
-1.62353

> <r_i_glide_ligand_efficiency_sa>
-0.941291

> <r_i_glide_lipo>
-2.34012

> <r_i_glide_metal>
0

> <r_i_glide_rewards>
-2.39647

> <r_i_target_temperature>
298

> <r_lp_Energy>
31.2658

> <r_pdb_PDB_CRYST1_a>
58.761

> <r_pdb_PDB_CRYST1_alpha>
90

> <r_pdb_PDB_CRYST1_b>
157.538

> <r_pdb_PDB_CRYST1_beta>
90

> <r_pdb_PDB_CRYST1_c>
164.509

> <r_pdb_PDB_CRYST1_gamma>
90

> <r_pdb_PDB_EXPDTA_PH>
4.6

> <r_pdb_PDB_EXPDTA_TEMPERATURE>
100

> <r_pdb_PDB_R>
0.212

> <r_pdb_PDB_RESOLUTION>
2.6

> <r_pdb_PDB_Rfree>
0.258

> <r_ppw_preprocess_pH>
7.4

> <s_epik_Chemistry_Notes>
This compound has an imine and may undergo hydrolysis.

> <s_epik_cmdline>
J2VwaWtfcHl0aG9uJywgJy1waCcsICc3LjAnLCAnLXRuJywgJzgnLCAnLW1hJywgJzUwMCcsICctaW1hZScsICc8aW5maWxlLm1hZT4nLCAnLW9tYWUnLCAnPG91dGZpbGUubWFlPic=

> <s_epik_input>
W0NIM11DMShbQ0gzXSlOPUMoW05IMl0pTj1DKFtOSDJdKU4xYzJbY0hdW2NIXWMoQ2wpW2NIXVtjSF0y

> <s_i_glide_gridfile>
glide-grid_A7UD81_A16V_S108T

> <s_lp_Force_Field>
S-OPLS

> <s_lp_Variant>
1CY-1

> <s_m_Source_File>
glide-dock_SP_A7UD81_A16V_S108T_pv.maegz

> <s_m_Source_Path>
C:\Users\sheng xia\Documents\Schrodinger\glide-dock_SP_A7UD81_A16V_S108T

> <s_m_entry_id>
182

> <s_m_entry_name>
Structure29

> <s_m_job_name>
glide-dock_SP_A7UD81_A16V_S108T

> <s_m_source_file>
ligprep_1CY.maegz

> <s_m_subgroup_title>
glide-dock_SP_A7UD81_A16V_S108T_pv

> <s_m_subgroupid>
glide-dock_SP_A7UD81_A16V_S108T_pv

> <s_pdb_PDB_CLASSIFICATION>
OXIDOREDUCTASE, TRANSFERASE/INHIBITOR

> <s_pdb_PDB_CRYST1_Space_Group>
P 21 21 21

> <s_pdb_PDB_DEPOSITION_DATE>
12-NOV-11

> <s_pdb_PDB_EXPDTA>
X-RAY DIFFRACTION

> <s_pdb_PDB_ID>
3UM8

> <s_pdb_PDB_REMARK_350_Biomolecule_1_Transform_1_Chains>
A, B

> <s_pdb_PDB_REMARK_350_Biomolecule_1_Transform_1_Matrix_1>
1.000000 0.000000 0.000000   0.000000;0.000000 1.000000 0.000000   0.000000;0.000000 0.000000 1.000000   0.000000

> <s_pdb_PDB_TITLE>
WILD-TYPE PLASMODIUM FALCIPARUM DHFR-TS COMPLEXED WITH CYCLOGUANIL AND NADPH

> <s_pdb_PDB_format_version>
3.30

> <s_ppw_het_states>
eJztklFrgzAUhf+K5FmKV73O7a+UEqRNOyHTkdjCEP/7bpK2R2GPe9te5OST5JxzubPSN+N8Pw5avWUNU8V5JqyzVxPIrEi++1kd3zt3MT4c9jXXdZ4VhzwLkiEbyBfIFvL1KbmAJMgSsoKEG8ON4cZwY7gx3JroJlqN7iR9VzVSg/IeMAG5SGiXim1ASE8onfqWqJ5a0xqEloSJbF0iCDUJg0rT2ILqCTgmZUS/AzzKKSmic0zKSMopGJIm0KAct49Hyzi9TzN0dvqS8VW7lkjiqA8zdVanH31ckHkR7I+jM3IYrtbKsR/Oo/aTWxGvR9dferkn8NxZb+TeT4u2mvz/ov25RSt2RUHtLy/aYVm+AYLlKMg=

> <s_ppw_prepared_with_version>
2024-1

$$$$
