PTP1B_206672qbp
                    3D
 Schrodinger Suite 2024-1.
 60 63  0  0  1  0            999 V2000
   48.4975   18.1768    4.7465 O   0  0  0  0  0  0
   47.3507   17.6847    4.6633 C   0  0  0  0  0  0
   46.4631   17.7769    5.5466 O   0  5  0  0  0  0
   47.0131   16.9305    3.3792 C   0  0  0  0  0  0
   45.8057   16.2085    3.5571 O   0  0  0  0  0  0
   45.5367   15.3154    2.5880 C   0  0  0  0  0  0
   44.7322   15.5840    1.5134 C   0  0  0  0  0  0
   44.0631   16.8399    1.1199 C   0  0  0  0  0  0
   43.5986   16.9757   -0.0305 O   0  0  0  0  0  0
   43.9985   17.7769    1.9465 O   0  5  0  0  0  0
   44.5272   14.1604    0.5049 S   0  0  0  0  0  0
   45.6046   13.2150    1.5166 C   0  0  0  0  0  0
   45.9156   11.8211    1.1820 C   0  0  0  0  0  0
   44.9481   10.9622    0.6154 C   0  0  0  0  0  0
   45.2571    9.6126    0.3466 C   0  0  0  0  0  0
   46.5258    9.0913    0.6727 C   0  0  0  0  0  0
   47.5079    9.9357    1.2359 C   0  0  0  0  0  0
   48.8002    9.5188    1.5895 N   0  0  0  0  0  0
   49.1207    8.1349    1.9258 C   0  0  0  0  0  0
   50.6288    7.9086    1.7299 C   0  0  0  0  0  0
   51.0650    6.4999    2.1584 C   0  0  0  0  0  0
   50.6753    6.2515    3.5549 N   0  0  0  0  0  0
   51.6715    5.2472    4.5622 S   0  0  0  0  0  0
   53.0776    5.5487    4.2484 O   0  0  0  0  0  0
   51.1984    5.3769    5.9466 O   0  0  0  0  0  0
   51.2918    3.5367    4.0075 C   0  0  0  0  0  0
   51.8018    2.5796    5.0680 C   0  0  0  0  0  0
   53.1481    2.1596    5.0470 C   0  0  0  0  0  0
   53.6430    1.3265    6.0679 C   0  0  0  0  0  0
   52.7980    0.9166    7.1165 C   0  0  0  0  0  0
   51.4516    1.3270    7.1391 C   0  0  0  0  0  0
   50.9522    2.1536    6.1132 C   0  0  0  0  0  0
   49.2339    6.4163    3.8297 C   0  0  0  0  0  0
   48.7527    7.8152    3.3896 C   0  0  0  0  0  0
   47.1976   11.2920    1.4510 C   0  0  0  0  0  0
   46.0362   13.9862    2.5671 C   0  0  0  0  0  0
   47.1985   13.3767    3.9465 Br  0  0  0  0  0  0
   46.9050   17.6438    2.5605 H   0  0  0  0  0  0
   47.8405   16.2629    3.1301 H   0  0  0  0  0  0
   43.9574   11.3310    0.3915 H   0  0  0  0  0  0
   44.5095    8.9674   -0.0900 H   0  0  0  0  0  0
   46.7282    8.0512    0.4708 H   0  0  0  0  0  0
   49.3280   10.2068    2.1187 H   0  0  0  0  0  0
   48.5929    7.4504    1.2630 H   0  0  0  0  0  0
   50.8945    8.0703    0.6848 H   0  0  0  0  0  0
   51.1910    8.6433    2.3090 H   0  0  0  0  0  0
   50.6109    5.7424    1.5191 H   0  0  0  0  0  0
   52.1448    6.4043    2.0475 H   0  0  0  0  0  0
   50.2127    3.4374    3.8934 H   0  0  0  0  0  0
   51.7609    3.3596    3.0404 H   0  0  0  0  0  0
   53.8129    2.4900    4.2622 H   0  0  0  0  0  0
   54.6787    1.0164    6.0597 H   0  0  0  0  0  0
   53.1883    0.2864    7.9040 H   0  0  0  0  0  0
   50.8070    1.0071    7.9452 H   0  0  0  0  0  0
   49.9214    2.4749    6.1447 H   0  0  0  0  0  0
   48.6770    5.6393    3.3040 H   0  0  0  0  0  0
   49.0373    6.2806    4.8937 H   0  0  0  0  0  0
   49.1973    8.5617    4.0494 H   0  0  0  0  0  0
   47.6736    7.8902    3.5285 H   0  0  0  0  0  0
   47.9691   11.9354    1.8444 H   0  0  0  0  0  0
  1  2  2  0  0  0
  2  3  1  0  0  0
  2  4  1  0  0  0
  4  5  1  0  0  0
  4 38  1  0  0  0
  4 39  1  0  0  0
  5  6  1  0  0  0
  6 36  1  0  0  0
  6  7  2  0  0  0
  7  8  1  0  0  0
  7 11  1  0  0  0
  8  9  2  0  0  0
  8 10  1  0  0  0
 11 12  1  0  0  0
 12 13  1  0  0  0
 12 36  2  0  0  0
 13 35  1  0  0  0
 13 14  2  0  0  0
 14 15  1  0  0  0
 14 40  1  0  0  0
 15 16  2  0  0  0
 15 41  1  0  0  0
 16 17  1  0  0  0
 16 42  1  0  0  0
 17 18  1  0  0  0
 17 35  2  0  0  0
 18 19  1  0  0  0
 18 43  1  0  0  0
 19 34  1  0  0  0
 19 20  1  0  0  0
 19 44  1  0  0  0
 20 21  1  0  0  0
 20 45  1  0  0  0
 20 46  1  0  0  0
 21 22  1  0  0  0
 21 47  1  0  0  0
 21 48  1  0  0  0
 22 23  1  0  0  0
 22 33  1  0  0  0
 23 24  2  0  0  0
 23 25  2  0  0  0
 23 26  1  0  0  0
 26 27  1  0  0  0
 26 49  1  0  0  0
 26 50  1  0  0  0
 27 32  1  0  0  0
 27 28  2  0  0  0
 28 29  1  0  0  0
 28 51  1  0  0  0
 29 30  2  0  0  0
 29 52  1  0  0  0
 30 31  1  0  0  0
 30 53  1  0  0  0
 31 32  2  0  0  0
 31 54  1  0  0  0
 32 55  1  0  0  0
 33 34  1  0  0  0
 33 56  1  0  0  0
 33 57  1  0  0  0
 34 58  1  0  0  0
 34 59  1  0  0  0
 35 60  1  0  0  0
 36 37  1  0  0  0
M  CHG  2   3  -1  10  -1
M  END
> <Tot Q>
-2

> <flags>
0

> <Source File Index>
1

> <i_f3d_flags>
0

> <subgroup collapsed>
0

> <Ionization Penalty>
0.0011

> <State Penalty>
0.0009

> <docking score>
-9.55022

> <glide emodel>
-156.054

> <glide gscore>
-9.55112

> <Source File>
glide-dock_SP_5_pv.maegz

> <Source Path>
C:\Users\yujie\Documents\Schrodinger\glide-dock_SP_5

> <entry id>
3926

> <job name>
glide-dock_SP_5

> <subgroup title>
glide-dock_SP_5_pv

> <subgroupid>
glide-dock_SP_5_pv

$$$$
