PTP1B_23473
                    3D
 Schrodinger Suite 2020-3.
 41 43  0  0  1  0            999 V2000
   48.4927   18.1769    4.7465 O   0  0  0  0  0  0
   47.3504   17.6716    4.6713 C   0  0  0  0  0  0
   46.4712   17.7768    5.5624 O   0  5  0  0  0  0
   47.0267   16.8978    3.3873 C   0  0  0  0  0  0
   45.7917   16.2113    3.5883 O   0  0  0  0  0  0
   45.5102   15.3124    2.6015 C   0  0  0  0  0  0
   44.7085   15.5939    1.4998 C   0  0  0  0  0  0
   44.0546   16.8466    1.1080 C   0  0  0  0  0  0
   43.5984   16.9406   -0.0509 O   0  0  0  0  0  0
   44.0006   17.7764    1.9463 O   0  5  0  0  0  0
   44.5082   14.1674    0.5205 S   0  0  0  0  0  0
   45.5371   13.2161    1.5617 C   0  0  0  0  0  0
   45.8055   11.7801    1.2271 C   0  0  0  0  0  0
   44.8258   10.9846    0.6203 C   0  0  0  0  0  0
   45.0724    9.6398    0.3465 C   0  0  0  0  0  0
   46.2913    9.0659    0.7067 C   0  0  0  0  0  0
   47.2852    9.8417    1.3204 C   0  0  0  0  0  0
   48.5117    9.3623    1.7333 O   0  0  0  0  0  0
   48.7263    7.9516    1.7851 C   0  0  0  0  0  0
   50.0285    7.6356    2.5157 C   0  0  0  0  0  0
   50.5113    8.4805    3.5213 C   0  0  0  0  0  0
   51.6983    8.1756    4.1821 C   0  0  0  0  0  0
   52.3945    7.0158    3.8483 C   0  0  0  0  0  0
   51.9151    6.1615    2.8585 C   0  0  0  0  0  0
   50.7317    6.4710    2.1921 C   0  0  0  0  0  0
   47.0372   11.1955    1.5449 C   0  0  0  0  0  0
   45.9861   13.9933    2.6335 C   0  0  0  0  0  0
   47.1200   13.3772    4.0391 Br  0  0  0  0  0  0
   46.9281   17.6035    2.5603 H   0  0  0  0  0  0
   47.8420   16.2076    3.1563 H   0  0  0  0  0  0
   43.8633   11.4020    0.3650 H   0  0  0  0  0  0
   44.3108    9.0362   -0.1249 H   0  0  0  0  0  0
   46.4489    8.0180    0.5027 H   0  0  0  0  0  0
   47.9117    7.4524    2.3149 H   0  0  0  0  0  0
   48.7652    7.5551    0.7684 H   0  0  0  0  0  0
   49.9707    9.3761    3.7913 H   0  0  0  0  0  0
   52.0705    8.8396    4.9470 H   0  0  0  0  0  0
   53.3154    6.7755    4.3579 H   0  0  0  0  0  0
   52.4562    5.2600    2.6096 H   0  0  0  0  0  0
   50.3620    5.8038    1.4267 H   0  0  0  0  0  0
   47.8228   11.7834    1.9911 H   0  0  0  0  0  0
  1  2  2  0  0  0
  2  3  1  0  0  0
  2  4  1  0  0  0
  4  5  1  0  0  0
  4 29  1  0  0  0
  4 30  1  0  0  0
  5  6  1  0  0  0
  6 27  1  0  0  0
  6  7  2  0  0  0
  7  8  1  0  0  0
  7 11  1  0  0  0
  8  9  2  0  0  0
  8 10  1  0  0  0
 11 12  1  0  0  0
 12 13  1  0  0  0
 12 27  2  0  0  0
 13 26  1  0  0  0
 13 14  2  0  0  0
 14 15  1  0  0  0
 14 31  1  0  0  0
 15 16  2  0  0  0
 15 32  1  0  0  0
 16 17  1  0  0  0
 16 33  1  0  0  0
 17 18  1  0  0  0
 17 26  2  0  0  0
 18 19  1  0  0  0
 19 20  1  0  0  0
 19 34  1  0  0  0
 19 35  1  0  0  0
 20 25  1  0  0  0
 20 21  2  0  0  0
 21 22  1  0  0  0
 21 36  1  0  0  0
 22 23  2  0  0  0
 22 37  1  0  0  0
 23 24  1  0  0  0
 23 38  1  0  0  0
 24 25  2  0  0  0
 24 39  1  0  0  0
 25 40  1  0  0  0
 26 41  1  0  0  0
 27 28  1  0  0  0
M  CHG  2   3  -1  10  -1
M  END
> <s_m_source_file>
/home/user-home/yujie/0_PBCNetv2/data/FEP/PTP1B/inp_ligprep.csv

> <i_m_source_file_index>
7

> <i_lp_mmshare_version>
51139

> <i_f3d_flags>
0

> <s_epik_input>
Tz1DKFtPSF0pW0NIMl1PYzFjKEMoPU8pW09IXSlzYyhjMUJyKS1jMltjSF1bY0hdW2NIXWMoW2NIXTIpT1tDSDJdYzNbY0hdW2NIXVtjSF1bY0hdW2NIXTM=

> <s_epik_cmdline>
J2VwaWtfcHl0aG9uJywgJy1waHQnLCAnMi4wJywgJy1waCcsICc3LjQnLCAnLXRuJywgJzgnLCAnLW1hJywgJzIwMCcsICctaW1hZScsICc8aW5maWxlLm1hZT4nLCAnLW9tYWUnLCAnPG91dGZpbGUubWFlPic=

> <r_lp_tautomer_probability>
1

> <r_epik_Ionization_Penalty>
  0.0001

> <r_epik_Ionization_Penalty_Charging>
  0.0001

> <r_epik_Ionization_Penalty_Neutral>
  0.0000

> <r_epik_State_Penalty>
 -0.0000

> <r_epik_Charging_Adjusted_Penalty>
9.21585e-05

> <i_epik_Tot_Q>
-2

> <i_epik_Tot_abs_Q>
2

> <s_lp_Force_Field>
OPLS3e

> <r_lp_Energy>
46.1433

> <b_lp_Chiralities_Consistent>
1

> <s_lp_Variant>
PTP1B_23473-1

> <s_i_glide_gridfile>
PTP1B-001-gridgen

> <i_i_glide_lignum>
8

> <i_i_glide_rotatable_bonds>
8

> <r_i_docking_score>
-7.76826393780013

> <r_i_glide_ligand_efficiency>
-0.277437997778576

> <r_i_glide_ligand_efficiency_sa>
-0.842465163497934

> <r_i_glide_ligand_efficiency_ln>
-1.79314340298445

> <r_i_glide_gscore>
-7.76826393780013

> <r_i_glide_lipo>
-1.79114034965835

> <r_i_glide_hbond>
-0.938372060440457

> <r_i_glide_metal>
-0

> <r_i_glide_rewards>
-0.260197202139465

> <r_i_glide_evdw>
-39.6785659790039

> <r_i_glide_ecoul>
-21.9170112609863

> <r_i_glide_erotb>
0.567762798877506

> <r_i_glide_esite>
-0.074837136341222

> <r_i_glide_emodel>
-86.8833520297828

> <r_i_glide_energy>
-61.5955772399902

> <r_i_glide_einternal>
63.5091400146484

> <i_i_glide_confnum>
139

> <i_i_glide_posenum>
322

> <r_i_glide_eff_state_penalty>
-0

$$$$
