PTP1B_23476
                    3D
 Schrodinger Suite 2020-3.
 48 50  0  0  1  0            999 V2000
   46.4986   17.7760    5.5754 O   0  0  0  0  0  0
   47.3713   17.6736    4.6779 C   0  0  0  0  0  0
   48.5146   18.1772    4.7465 O   0  5  0  0  0  0
   47.0365   16.9053    3.3934 C   0  0  0  0  0  0
   45.8035   16.2172    3.5998 O   0  0  0  0  0  0
   45.5265   15.3129    2.6176 C   0  0  0  0  0  0
   44.7315   15.5874    1.5096 C   0  0  0  0  0  0
   44.0785   16.8387    1.1144 C   0  0  0  0  0  0
   44.0484   17.7771    1.9462 O   0  0  0  0  0  0
   43.5983   16.9195   -0.0357 O   0  5  0  0  0  0
   44.5531   14.1590    0.5259 S   0  0  0  0  0  0
   45.5946   13.2260    1.5670 C   0  0  0  0  0  0
   45.9237   11.8108    1.2139 C   0  0  0  0  0  0
   44.9769   10.9612    0.6303 C   0  0  0  0  0  0
   45.2996    9.6339    0.3459 C   0  0  0  0  0  0
   46.5618    9.1354    0.6708 C   0  0  0  0  0  0
   47.5193    9.9708    1.2602 C   0  0  0  0  0  0
   48.7981    9.5362    1.6506 N   0  0  0  0  0  0
   49.0158    8.1687    2.1221 C   0  0  0  0  0  0
   50.5324    7.8769    2.1847 C   0  0  0  0  0  0
   50.9665    6.4971    2.7249 C   0  0  0  0  0  0
   50.7514    6.3147    4.2399 C   0  0  0  0  0  0
   49.3368    5.8854    4.6814 C   0  0  0  0  0  0
   48.1500    6.4340    3.8677 C   0  0  0  0  0  0
   48.2554    7.9111    3.4483 C   0  0  0  0  0  0
   47.1984   11.3071    1.4945 C   0  0  0  0  0  0
   46.0074   13.9970    2.6559 C   0  0  0  0  0  0
   47.1209   13.3767    4.0768 Br  0  0  0  0  0  0
   46.9286   17.6164    2.5721 H   0  0  0  0  0  0
   47.8504   16.2168    3.1542 H   0  0  0  0  0  0
   43.9853   11.3244    0.4022 H   0  0  0  0  0  0
   44.5656    8.9848   -0.1075 H   0  0  0  0  0  0
   46.7807    8.1003    0.4585 H   0  0  0  0  0  0
   49.2774   10.2202    2.2279 H   0  0  0  0  0  0
   48.6059    7.4901    1.3738 H   0  0  0  0  0  0
   50.9328    7.9794    1.1745 H   0  0  0  0  0  0
   51.0287    8.6547    2.7669 H   0  0  0  0  0  0
   50.4752    5.6962    2.1696 H   0  0  0  0  0  0
   52.0318    6.3809    2.5189 H   0  0  0  0  0  0
   51.4601    5.5737    4.6112 H   0  0  0  0  0  0
   51.0235    7.2409    4.7464 H   0  0  0  0  0  0
   49.2763    4.7958    4.6769 H   0  0  0  0  0  0
   49.2030    6.1726    5.7248 H   0  0  0  0  0  0
   47.9964    5.8166    2.9813 H   0  0  0  0  0  0
   47.2431    6.2971    4.4596 H   0  0  0  0  0  0
   48.7065    8.4934    4.2522 H   0  0  0  0  0  0
   47.2397    8.2929    3.3509 H   0  0  0  0  0  0
   47.9471   11.9550    1.9226 H   0  0  0  0  0  0
  1  2  2  0  0  0
  2  3  1  0  0  0
  2  4  1  0  0  0
  4  5  1  0  0  0
  4 29  1  0  0  0
  4 30  1  0  0  0
  5  6  1  0  0  0
  6 27  1  0  0  0
  6  7  2  0  0  0
  7  8  1  0  0  0
  7 11  1  0  0  0
  8  9  2  0  0  0
  8 10  1  0  0  0
 11 12  1  0  0  0
 12 13  1  0  0  0
 12 27  2  0  0  0
 13 26  1  0  0  0
 13 14  2  0  0  0
 14 15  1  0  0  0
 14 31  1  0  0  0
 15 16  2  0  0  0
 15 32  1  0  0  0
 16 17  1  0  0  0
 16 33  1  0  0  0
 17 18  1  0  0  0
 17 26  2  0  0  0
 18 19  1  0  0  0
 18 34  1  0  0  0
 19 25  1  0  0  0
 19 20  1  0  0  0
 19 35  1  0  0  0
 20 21  1  0  0  0
 20 36  1  0  0  0
 20 37  1  0  0  0
 21 22  1  0  0  0
 21 38  1  0  0  0
 21 39  1  0  0  0
 22 23  1  0  0  0
 22 40  1  0  0  0
 22 41  1  0  0  0
 23 24  1  0  0  0
 23 42  1  0  0  0
 23 43  1  0  0  0
 24 25  1  0  0  0
 24 44  1  0  0  0
 24 45  1  0  0  0
 25 46  1  0  0  0
 25 47  1  0  0  0
 26 48  1  0  0  0
 27 28  1  0  0  0
M  CHG  2   3  -1  10  -1
M  END
> <s_m_source_file>
/home/user-home/yujie/0_PBCNetv2/data/FEP/PTP1B/inp_ligprep.csv

> <i_m_source_file_index>
22

> <i_lp_mmshare_version>
51139

> <i_f3d_flags>
0

> <s_epik_input>
Tz1DKFtPSF0pW0NIMl1PYzFjKEMoPU8pW09IXSlzYyhjMUJyKS1jMltjSF1bY0hdW2NIXWMoW2NIXTIpW05IXVtDSF0zW0NIMl1bQ0gyXVtDSDJdW0NIMl1bQ0gyXVtDSDJdMw==

> <s_epik_cmdline>
J2VwaWtfcHl0aG9uJywgJy1waHQnLCAnMi4wJywgJy1waCcsICc3LjQnLCAnLXRuJywgJzgnLCAnLW1hJywgJzIwMCcsICctaW1hZScsICc8aW5maWxlLm1hZT4nLCAnLW9tYWUnLCAnPG91dGZpbGUubWFlPic=

> <r_epik_Ionization_Penalty>
  0.0036

> <r_epik_Ionization_Penalty_Charging>
  0.0001

> <r_epik_Ionization_Penalty_Neutral>
  0.0035

> <r_epik_State_Penalty>
  0.0025

> <r_epik_Charging_Adjusted_Penalty>
0.00257733

> <i_epik_Tot_Q>
-2

> <i_epik_Tot_abs_Q>
2

> <s_lp_Force_Field>
OPLS3e

> <r_lp_Energy>
45.577

> <b_lp_Chiralities_Consistent>
1

> <s_lp_Variant>
PTP1B_23476-1

> <s_i_glide_gridfile>
PTP1B-001-gridgen

> <i_i_glide_lignum>
23

> <i_i_glide_rotatable_bonds>
7

> <r_i_docking_score>
-8.34654477170448

> <r_i_glide_ligand_efficiency>
-0.298090884703731

> <r_i_glide_ligand_efficiency_sa>
-0.905179492102596

> <r_i_glide_ligand_efficiency_ln>
-1.92662759851264

> <r_i_glide_gscore>
-8.34902995170448

> <r_i_glide_lipo>
-1.68833755962402

> <r_i_glide_hbond>
-1.26000518244406

> <r_i_glide_metal>
-0

> <r_i_glide_rewards>
-0.190791242024059

> <r_i_glide_evdw>
-38.6824531555176

> <r_i_glide_ecoul>
-24.4436054229736

> <r_i_glide_erotb>
0.4638153804994

> <r_i_glide_esite>
-0.0730478768898176

> <r_i_glide_emodel>
-119.573722234529

> <r_i_glide_energy>
-63.1260585784912

> <r_i_glide_einternal>
8.66055393218994

> <i_i_glide_confnum>
114

> <i_i_glide_posenum>
336

> <r_i_glide_eff_state_penalty>
0.00248518

$$$$
