PTP1B_206702qbs
                    3D
 Schrodinger Suite 2020-3.
 45 47  0  0  1  0            999 V2000
   48.6000   18.1764    4.7465 O   0  0  0  0  0  0
   47.5275   17.5317    4.7466 C   0  0  0  0  0  0
   46.7986   17.3793    5.7608 O   0  5  0  0  0  0
   47.0954   16.9145    3.4101 C   0  0  0  0  0  0
   45.8765   16.2062    3.6304 O   0  0  0  0  0  0
   45.6000   15.2936    2.6560 C   0  0  0  0  0  0
   44.7991   15.5611    1.5495 C   0  0  0  0  0  0
   44.1359   16.8105    1.1467 C   0  0  0  0  0  0
   44.1468   17.7768    1.9466 O   0  0  0  0  0  0
   43.5986   16.8617    0.0200 O   0  5  0  0  0  0
   44.6231   14.1206    0.5823 S   0  0  0  0  0  0
   45.6589   13.1858    1.6336 C   0  0  0  0  0  0
   45.9677   11.7554    1.2948 C   0  0  0  0  0  0
   45.0378   10.9431    0.6329 C   0  0  0  0  0  0
   45.3350    9.6096    0.3465 C   0  0  0  0  0  0
   46.5524    9.0608    0.7521 C   0  0  0  0  0  0
   47.4944    9.8521    1.4219 C   0  0  0  0  0  0
   48.7346    9.3771    1.8873 N   0  0  0  0  0  0
   49.0007    7.9577    2.1120 C   0  0  0  0  0  0
   50.5301    7.7777    2.2377 C   0  0  0  0  0  0
   50.9074    6.3351    2.6310 C   0  0  0  0  0  0
   50.1776    5.8804    3.9112 C   0  0  0  0  0  0
   48.6508    6.0647    3.8016 C   0  0  0  0  0  0
   48.2763    7.5053    3.4029 C   0  0  0  0  0  0
   47.1998   11.1961    1.6551 C   0  0  0  0  0  0
   46.0797   13.9744    2.7105 C   0  0  0  0  0  0
   47.1966   13.3768    4.1418 Br  0  0  0  0  0  0
   46.9207   17.7169    2.6912 H   0  0  0  0  0  0
   47.8924   16.2672    3.0353 H   0  0  0  0  0  0
   44.0765   11.3401    0.3408 H   0  0  0  0  0  0
   44.6126    8.9931   -0.1674 H   0  0  0  0  0  0
   46.7457    8.0208    0.5394 H   0  0  0  0  0  0
   49.2039   10.0045    2.5317 H   0  0  0  0  0  0
   48.6330    7.3753    1.2665 H   0  0  0  0  0  0
   51.0117    8.0327    1.2930 H   0  0  0  0  0  0
   50.9335    8.4684    2.9812 H   0  0  0  0  0  0
   50.6570    5.6584    1.8126 H   0  0  0  0  0  0
   51.9863    6.2567    2.7707 H   0  0  0  0  0  0
   50.4112    4.8362    4.1226 H   0  0  0  0  0  0
   50.5496    6.4536    4.7614 H   0  0  0  0  0  0
   48.2502    5.3696    3.0616 H   0  0  0  0  0  0
   48.1737    5.8040    4.7475 H   0  0  0  0  0  0
   48.5101    8.1797    4.2282 H   0  0  0  0  0  0
   47.1987    7.5592    3.2573 H   0  0  0  0  0  0
   47.9469   11.8082    2.1346 H   0  0  0  0  0  0
  1  2  2  0  0  0
  2  3  1  0  0  0
  2  4  1  0  0  0
  4  5  1  0  0  0
  4 28  1  0  0  0
  4 29  1  0  0  0
  5  6  1  0  0  0
  6 26  1  0  0  0
  6  7  2  0  0  0
  7  8  1  0  0  0
  7 11  1  0  0  0
  8  9  2  0  0  0
  8 10  1  0  0  0
 11 12  1  0  0  0
 12 13  1  0  0  0
 12 26  2  0  0  0
 13 25  1  0  0  0
 13 14  2  0  0  0
 14 15  1  0  0  0
 14 30  1  0  0  0
 15 16  2  0  0  0
 15 31  1  0  0  0
 16 17  1  0  0  0
 16 32  1  0  0  0
 17 18  1  0  0  0
 17 25  2  0  0  0
 18 19  1  0  0  0
 18 33  1  0  0  0
 19 24  1  0  0  0
 19 20  1  0  0  0
 19 34  1  0  0  0
 20 21  1  0  0  0
 20 35  1  0  0  0
 20 36  1  0  0  0
 21 22  1  0  0  0
 21 37  1  0  0  0
 21 38  1  0  0  0
 22 23  1  0  0  0
 22 39  1  0  0  0
 22 40  1  0  0  0
 23 24  1  0  0  0
 23 41  1  0  0  0
 23 42  1  0  0  0
 24 43  1  0  0  0
 24 44  1  0  0  0
 25 45  1  0  0  0
 26 27  1  0  0  0
M  CHG  2   3  -1  10  -1
M  END
> <s_m_source_file>
/home/user-home/yujie/0_PBCNetv2/data/FEP/PTP1B/inp_ligprep.csv

> <i_m_source_file_index>
10

> <i_lp_mmshare_version>
51139

> <i_f3d_flags>
0

> <s_epik_input>
Tz1DKFtPSF0pW0NIMl1PYzFjKEMoPU8pW09IXSlzYyhjMUJyKS1jMltjSF1bY0hdW2NIXWMoW2NIXTIpW05IXVtDSF0zW0NIMl1bQ0gyXVtDSDJdW0NIMl1bQ0gyXTM=

> <s_epik_cmdline>
J2VwaWtfcHl0aG9uJywgJy1waHQnLCAnMi4wJywgJy1waCcsICc3LjQnLCAnLXRuJywgJzgnLCAnLW1hJywgJzIwMCcsICctaW1hZScsICc8aW5maWxlLm1hZT4nLCAnLW9tYWUnLCAnPG91dGZpbGUubWFlPic=

> <r_epik_Ionization_Penalty>
  0.0027

> <r_epik_Ionization_Penalty_Charging>
  0.0001

> <r_epik_Ionization_Penalty_Neutral>
  0.0027

> <r_epik_State_Penalty>
  0.0018

> <r_epik_Charging_Adjusted_Penalty>
0.00194051

> <i_epik_Tot_Q>
-2

> <i_epik_Tot_abs_Q>
2

> <s_lp_Force_Field>
OPLS3e

> <r_lp_Energy>
43.6335

> <b_lp_Chiralities_Consistent>
1

> <s_lp_Variant>
PTP1B_206702qbs-1

> <s_i_glide_gridfile>
PTP1B-001-gridgen

> <i_i_glide_lignum>
11

> <i_i_glide_rotatable_bonds>
7

> <r_i_docking_score>
-8.47455135005443

> <r_i_glide_ligand_efficiency>
-0.313872272224238

> <r_i_glide_ligand_efficiency_sa>
-0.941616815638243

> <r_i_glide_ligand_efficiency_ln>
-1.97273584039443

> <r_i_glide_gscore>
-8.47639970005443

> <r_i_glide_lipo>
-1.5303414445217

> <r_i_glide_hbond>
-1.43645321765597

> <r_i_glide_metal>
-0

> <r_i_glide_rewards>
-0.389561897311304

> <r_i_glide_evdw>
-38.3505363464355

> <r_i_glide_ecoul>
-24.1668472290039

> <r_i_glide_erotb>
0.490342647462805

> <r_i_glide_esite>
-0.0678318863559037

> <r_i_glide_emodel>
-118.378604176099

> <r_i_glide_energy>
-62.5173835754395

> <r_i_glide_einternal>
10.0222053527832

> <i_i_glide_confnum>
156

> <i_i_glide_posenum>
160

> <r_i_glide_eff_state_penalty>
0.00184835

$$$$
