PTP1B_23484
                    3D
 Schrodinger Suite 2020-3.
 60 63  0  0  1  0            999 V2000
   46.6822   17.7734    5.5468 O   0  0  0  0  0  0
   47.5989   17.5574    4.7149 C   0  0  0  0  0  0
   48.7259   18.0999    4.7466 O   0  5  0  0  0  0
   47.3574   16.5576    3.5776 C   0  0  0  0  0  0
   45.9770   16.1961    3.5873 O   0  0  0  0  0  0
   45.6554   15.2577    2.6503 C   0  0  0  0  0  0
   46.1200   13.9348    2.6919 C   0  0  0  0  0  0
   45.6615   13.1306    1.6544 C   0  0  0  0  0  0
   45.9958   11.6950    1.3667 C   0  0  0  0  0  0
   45.1661   10.8712    0.5959 C   0  0  0  0  0  0
   45.5118    9.5398    0.3552 C   0  0  0  0  0  0
   46.6843    9.0094    0.8966 C   0  0  0  0  0  0
   47.5327    9.8163    1.6648 C   0  0  0  0  0  0
   48.7538    9.3786    2.2085 N   0  0  0  0  0  0
   49.1633    7.9844    2.3627 C   0  0  0  0  0  0
   50.7111    7.9653    2.3084 C   0  0  0  0  0  0
   51.2939    6.6083    2.7462 C   0  0  0  0  0  0
   50.7740    6.2430    4.0903 N   0  0  1  0  0  0
   51.7026    5.0056    4.9707 S   0  0  0  0  0  0
   53.1329    5.2299    4.7067 O   0  0  0  0  0  0
   51.2093    4.9769    6.3535 O   0  0  0  0  0  0
   51.1874    3.3531    4.1917 C   0  0  0  0  0  0
   51.5698    3.2151    2.7266 C   0  0  0  0  0  0
   52.8996    2.9713    2.3744 C   0  0  0  0  0  0
   53.2510    2.8516    1.0314 C   0  0  0  0  0  0
   52.2708    2.9778    0.0480 C   0  0  0  0  0  0
   50.9431    3.2200    0.3933 C   0  0  0  0  0  0
   50.5904    3.3326    1.7359 C   0  0  0  0  0  0
   49.2937    6.1107    4.1366 C   0  0  0  0  0  0
   48.6210    7.4370    3.7104 C   0  0  0  0  0  0
   47.1778   11.1504    1.8873 C   0  0  0  0  0  0
   44.5857   14.0547    0.6334 S   0  0  0  0  0  0
   44.8114   15.5151    1.5728 C   0  0  0  0  0  0
   44.1699   16.7777    1.1661 C   0  0  0  0  0  0
   44.2353   17.7633    1.9442 O   0  0  0  0  0  0
   43.6004   16.8168    0.0551 O   0  5  0  0  0  0
   47.6130   17.0188    2.6180 H   0  0  0  0  0  0
   47.9980   15.6853    3.7305 H   0  0  0  0  0  0
   46.7895   13.5775    3.4595 H   0  0  0  0  0  0
   44.2472   11.2600    0.1816 H   0  0  0  0  0  0
   44.8640    8.9150   -0.2423 H   0  0  0  0  0  0
   46.9230    7.9762    0.6957 H   0  0  0  0  0  0
   49.2391   10.0494    2.7969 H   0  0  0  0  0  0
   48.7582    7.3828    1.5479 H   0  0  0  0  0  0
   51.0415    8.1851    1.2922 H   0  0  0  0  0  0
   51.1335    8.7515    2.9391 H   0  0  0  0  0  0
   50.9317    5.8879    2.0135 H   0  0  0  0  0  0
   52.3839    6.6510    2.7574 H   0  0  0  0  0  0
   51.6659    2.5664    4.7758 H   0  0  0  0  0  0
   50.1099    3.2569    4.3415 H   0  0  0  0  0  0
   53.6593    2.8765    3.1377 H   0  0  0  0  0  0
   54.2768    2.6558    0.7517 H   0  0  0  0  0  0
   52.5405    2.8789   -0.9949 H   0  0  0  0  0  0
   50.1912    3.3142   -0.3766 H   0  0  0  0  0  0
   49.5598    3.5225    2.0047 H   0  0  0  0  0  0
   48.9838    5.3698    3.3979 H   0  0  0  0  0  0
   48.9718    5.8304    5.1417 H   0  0  0  0  0  0
   48.7731    8.1695    4.5026 H   0  0  0  0  0  0
   47.5443    7.2783    3.6387 H   0  0  0  0  0  0
   47.8390   11.7742    2.4702 H   0  0  0  0  0  0
  1  2  2  0  0  0
  2  3  1  0  0  0
  2  4  1  0  0  0
  4  5  1  0  0  0
  4 37  1  0  0  0
  4 38  1  0  0  0
  5  6  1  0  0  0
  6 33  2  0  0  0
  6  7  1  0  0  0
  7  8  2  0  0  0
  7 39  1  0  0  0
  8  9  1  0  0  0
  8 32  1  0  0  0
  9 31  1  0  0  0
  9 10  2  0  0  0
 10 11  1  0  0  0
 10 40  1  0  0  0
 11 12  2  0  0  0
 11 41  1  0  0  0
 12 13  1  0  0  0
 12 42  1  0  0  0
 13 14  1  0  0  0
 13 31  2  0  0  0
 14 15  1  0  0  0
 14 43  1  0  0  0
 15 30  1  0  0  0
 15 16  1  0  0  0
 15 44  1  0  0  0
 16 17  1  0  0  0
 16 45  1  0  0  0
 16 46  1  0  0  0
 17 18  1  0  0  0
 17 47  1  0  0  0
 17 48  1  0  0  0
 18 19  1  0  0  0
 18 29  1  0  0  0
 19 20  2  0  0  0
 19 21  2  0  0  0
 19 22  1  0  0  0
 22 23  1  0  0  0
 22 49  1  0  0  0
 22 50  1  0  0  0
 23 28  1  0  0  0
 23 24  2  0  0  0
 24 25  1  0  0  0
 24 51  1  0  0  0
 25 26  2  0  0  0
 25 52  1  0  0  0
 26 27  1  0  0  0
 26 53  1  0  0  0
 27 28  2  0  0  0
 27 54  1  0  0  0
 28 55  1  0  0  0
 29 30  1  0  0  0
 29 56  1  0  0  0
 29 57  1  0  0  0
 30 58  1  0  0  0
 30 59  1  0  0  0
 31 60  1  0  0  0
 32 33  1  0  0  0
 33 34  1  0  0  0
 34 35  2  0  0  0
 34 36  1  0  0  0
M  CHG  2   3  -1  36  -1
M  END
> <s_m_source_file>
/home/user-home/yujie/0_PBCNetv2/data/FEP/PTP1B/inp_ligprep.csv

> <i_m_source_file_index>
15

> <i_lp_mmshare_version>
51139

> <i_f3d_flags>
0

> <s_epik_input>
Tz1DKFtPSF0pW0NIMl1PYzFbY0hdYyhzYzFDKD1PKVtPSF0pLWMyW2NIXVtjSF1bY0hdYyhbY0hdMilbTkhdW0NIXTNbQ0gyXVtDSDJdTihbQ0gyXVtDSDJdMylTKD1PKSg9TylbQ0gyXWM0W2NIXVtjSF1bY0hdW2NIXVtjSF00

> <s_epik_cmdline>
J2VwaWtfcHl0aG9uJywgJy1waHQnLCAnMi4wJywgJy1waCcsICc3LjQnLCAnLXRuJywgJzgnLCAnLW1hJywgJzIwMCcsICctaW1hZScsICc8aW5maWxlLm1hZT4nLCAnLW9tYWUnLCAnPG91dGZpbGUubWFlPic=

> <r_epik_Ionization_Penalty>
  0.0005

> <r_epik_Ionization_Penalty_Charging>
  0.0001

> <r_epik_Ionization_Penalty_Neutral>
  0.0004

> <r_epik_State_Penalty>
  0.0002

> <r_epik_Charging_Adjusted_Penalty>
0.000340707

> <i_epik_Tot_Q>
-2

> <i_epik_Tot_abs_Q>
2

> <s_lp_Force_Field>
OPLS3e

> <r_lp_Energy>
59.9514

> <b_lp_Chiralities_Consistent>
1

> <s_lp_Variant>
PTP1B_23484-1

> <s_i_glide_gridfile>
PTP1B-001-gridgen

> <i_i_glide_lignum>
16

> <i_i_glide_rotatable_bonds>
10

> <r_i_docking_score>
-8.67857852269392

> <r_i_glide_ligand_efficiency>
-0.241071625630387

> <r_i_glide_ligand_efficiency_sa>
-0.79600096865347

> <r_i_glide_ligand_efficiency_ln>
-1.89343136555626

> <r_i_glide_gscore>
-8.67879616469392

> <r_i_glide_lipo>
-1.74964329712722

> <r_i_glide_hbond>
-1.23744166027226

> <r_i_glide_metal>
-0

> <r_i_glide_rewards>
-0.186786589882144

> <r_i_glide_evdw>
-41.9654388427734

> <r_i_glide_ecoul>
-25.4491958618164

> <r_i_glide_erotb>
0.589869111755453

> <r_i_glide_esite>
-0.179142407756618

> <r_i_glide_emodel>
-129.224026800297

> <r_i_glide_energy>
-67.4146347045898

> <r_i_glide_einternal>
13.201732635498

> <i_i_glide_confnum>
60

> <i_i_glide_posenum>
391

> <r_i_glide_eff_state_penalty>
0.000217642

$$$$
