PTP1B_23477
                    3D
 Schrodinger Suite 2020-3.
 43 45  0  0  1  0            999 V2000
   48.7334   18.1777    4.7463 O   0  0  0  0  0  0
   47.5908   17.6682    4.7147 C   0  0  0  0  0  0
   46.7410   17.7764    5.6324 O   0  5  0  0  0  0
   47.2234   16.8826    3.4483 C   0  0  0  0  0  0
   45.9727   16.2306    3.6741 O   0  0  0  0  0  0
   45.6788   15.2994    2.7207 C   0  0  0  0  0  0
   44.8834   15.5534    1.6027 C   0  0  0  0  0  0
   44.2267   16.7973    1.1669 C   0  0  0  0  0  0
   44.2485   17.7770    1.9464 O   0  0  0  0  0  0
   43.6668   16.8215    0.0500 O   0  5  0  0  0  0
   44.7104   14.1011    0.6576 S   0  0  0  0  0  0
   45.7284   13.1754    1.7310 C   0  0  0  0  0  0
   46.0431   11.7477    1.3902 C   0  0  0  0  0  0
   45.1507   10.9456    0.6659 C   0  0  0  0  0  0
   45.4743    9.6232    0.3550 C   0  0  0  0  0  0
   46.6765    9.0737    0.8036 C   0  0  0  0  0  0
   47.5780    9.8533    1.5390 C   0  0  0  0  0  0
   48.8035    9.3778    2.0421 N   0  0  0  0  0  0
   49.0577    7.9582    2.2758 C   0  0  0  0  0  0
   50.5713    7.7848    2.5120 C   0  0  0  0  0  0
   50.8946    6.3730    3.0394 C   0  0  0  0  0  0
   50.1285    6.1105    4.2132 O   0  0  0  0  0  0
   48.7194    6.0983    3.9834 C   0  0  0  0  0  0
   48.2652    7.4928    3.5166 C   0  0  0  0  0  0
   47.2596   11.1870    1.7954 C   0  0  0  0  0  0
   46.1335   13.9717    2.8106 C   0  0  0  0  0  0
   47.1992   13.3773    4.2882 Br  0  0  0  0  0  0
   47.1270   17.5783    2.6128 H   0  0  0  0  0  0
   48.0176   16.1690    3.2189 H   0  0  0  0  0  0
   44.2009   11.3413    0.3358 H   0  0  0  0  0  0
   44.7842    9.0162   -0.2127 H   0  0  0  0  0  0
   46.8937    8.0455    0.5679 H   0  0  0  0  0  0
   49.2650   10.0080    2.6925 H   0  0  0  0  0  0
   48.7462    7.3796    1.4048 H   0  0  0  0  0  0
   51.1187    7.9638    1.5856 H   0  0  0  0  0  0
   50.9336    8.5200    3.2330 H   0  0  0  0  0  0
   50.7007    5.6134    2.2784 H   0  0  0  0  0  0
   51.9544    6.2981    3.2892 H   0  0  0  0  0  0
   48.4538    5.3335    3.2513 H   0  0  0  0  0  0
   48.2129    5.8286    4.9109 H   0  0  0  0  0  0
   48.3922    8.1928    4.3439 H   0  0  0  0  0  0
   47.1989    7.4610    3.2905 H   0  0  0  0  0  0
   47.9799   11.7911    2.3227 H   0  0  0  0  0  0
  1  2  2  0  0  0
  2  3  1  0  0  0
  2  4  1  0  0  0
  4  5  1  0  0  0
  4 28  1  0  0  0
  4 29  1  0  0  0
  5  6  1  0  0  0
  6 26  1  0  0  0
  6  7  2  0  0  0
  7  8  1  0  0  0
  7 11  1  0  0  0
  8  9  2  0  0  0
  8 10  1  0  0  0
 11 12  1  0  0  0
 12 13  1  0  0  0
 12 26  2  0  0  0
 13 25  1  0  0  0
 13 14  2  0  0  0
 14 15  1  0  0  0
 14 30  1  0  0  0
 15 16  2  0  0  0
 15 31  1  0  0  0
 16 17  1  0  0  0
 16 32  1  0  0  0
 17 18  1  0  0  0
 17 25  2  0  0  0
 18 19  1  0  0  0
 18 33  1  0  0  0
 19 24  1  0  0  0
 19 20  1  0  0  0
 19 34  1  0  0  0
 20 21  1  0  0  0
 20 35  1  0  0  0
 20 36  1  0  0  0
 21 22  1  0  0  0
 21 37  1  0  0  0
 21 38  1  0  0  0
 22 23  1  0  0  0
 23 24  1  0  0  0
 23 39  1  0  0  0
 23 40  1  0  0  0
 24 41  1  0  0  0
 24 42  1  0  0  0
 25 43  1  0  0  0
 26 27  1  0  0  0
M  CHG  2   3  -1  10  -1
M  END
> <s_m_source_file>
/home/user-home/yujie/0_PBCNetv2/data/FEP/PTP1B/inp_ligprep.csv

> <i_m_source_file_index>
2

> <i_lp_mmshare_version>
51139

> <i_f3d_flags>
0

> <s_epik_input>
Tz1DKFtPSF0pW0NIMl1PYzFjKEMoPU8pW09IXSlzYyhjMUJyKS1jMltjSF1bY0hdW2NIXWMoW2NIXTIpW05IXVtDSF0zW0NIMl1bQ0gyXU9bQ0gyXVtDSDJdMw==

> <s_epik_cmdline>
J2VwaWtfcHl0aG9uJywgJy1waHQnLCAnMi4wJywgJy1waCcsICc3LjQnLCAnLXRuJywgJzgnLCAnLW1hJywgJzIwMCcsICctaW1hZScsICc8aW5maWxlLm1hZT4nLCAnLW9tYWUnLCAnPG91dGZpbGUubWFlPic=

> <r_epik_Ionization_Penalty>
  0.0006

> <r_epik_Ionization_Penalty_Charging>
  0.0001

> <r_epik_Ionization_Penalty_Neutral>
  0.0005

> <r_epik_State_Penalty>
  0.0003

> <r_epik_Charging_Adjusted_Penalty>
0.000418281

> <i_epik_Tot_Q>
-2

> <i_epik_Tot_abs_Q>
2

> <s_lp_Force_Field>
OPLS3e

> <r_lp_Energy>
36.7744

> <b_lp_Chiralities_Consistent>
1

> <s_lp_Variant>
PTP1B_23477-1

> <s_i_glide_gridfile>
PTP1B-001-gridgen

> <i_i_glide_lignum>
2

> <i_i_glide_rotatable_bonds>
7

> <r_i_docking_score>
-8.59821535383901

> <r_i_glide_ligand_efficiency>
-0.318452420512556

> <r_i_glide_ligand_efficiency_sa>
-0.9553572604881

> <r_i_glide_ligand_efficiency_ln>
-2.00152278171504

> <r_i_glide_gscore>
-8.59854147583901

> <r_i_glide_lipo>
-1.58997616951354

> <r_i_glide_hbond>
-1.27733207376707

> <r_i_glide_metal>
-0

> <r_i_glide_rewards>
-0.446049576670311

> <r_i_glide_evdw>
-37.4671516418457

> <r_i_glide_ecoul>
-25.5741519927979

> <r_i_glide_erotb>
0.486475644267145

> <r_i_glide_esite>
-0.0621789191432678

> <r_i_glide_emodel>
-120.387183813807

> <r_i_glide_energy>
-63.0413036346436

> <r_i_glide_einternal>
10.0474052429199

> <i_i_glide_confnum>
82

> <i_i_glide_posenum>
51

> <r_i_glide_eff_state_penalty>
0.000326122

$$$$
