lig2
                    3D
 Schrodinger Suite 2024-1.
 62 65  0  0  1  0            999 V2000
   39.2092   -9.0314   23.7564 N   0  0  0  0  0  0
   39.4039   -7.5683   23.6529 C   0  0  1  0  0  0
   38.7200   -7.0119   22.3778 C   0  0  0  0  0  0
   39.2034   -7.8595   20.8123 S   0  0  0  0  0  0
   40.4282   -6.8203   19.8763 C   0  0  0  0  0  0
   40.5366   -7.3648   18.4134 C   0  0  0  0  0  0
   40.4033   -8.7370   18.1364 C   0  0  0  0  0  0
   40.4860   -9.2241   16.8348 C   0  0  0  0  0  0
   40.7247   -8.3442   15.7850 C   0  0  0  0  0  0
   40.8746   -6.9836   16.0320 C   0  0  0  0  0  0
   40.7722   -6.4969   17.3330 C   0  0  0  0  0  0
   39.8167   -5.3884   19.9359 C   0  0  0  0  0  0
   40.3405   -4.3928   20.7771 C   0  0  0  0  0  0
   39.7028   -3.1617   20.9067 C   0  0  0  0  0  0
   38.5485   -2.9016   20.1754 C   0  0  0  0  0  0
   38.0324   -3.8577   19.3068 C   0  0  0  0  0  0
   38.6628   -5.0929   19.1901 C   0  0  0  0  0  0
   41.8696   -6.9306   20.4577 C   0  0  0  0  0  0
   42.2130   -7.8450   21.4662 C   0  0  0  0  0  0
   43.5235   -7.9544   21.9167 C   0  0  0  0  0  0
   44.5308   -7.1644   21.3583 C   0  0  0  0  0  0
   45.9812   -7.2960   21.8314 C   0  0  0  0  0  0
   46.1236   -6.8228   23.3028 C   0  0  0  0  0  0
   47.5641   -6.9673   23.8364 C   0  0  0  0  0  0
   48.1137   -8.3929   23.6449 C   0  0  0  0  0  0
   47.9613   -8.8749   22.1901 C   0  0  0  0  0  0
   46.5049   -8.7500   21.7002 C   0  0  0  0  0  0
   44.2052   -6.2527   20.3530 C   0  0  0  0  0  0
   42.8898   -6.1321   19.9159 C   0  0  0  0  0  0
   38.8817   -6.8159   24.9277 C   0  0  0  0  0  0
   39.6034   -5.8666   25.3122 O   0  0  0  0  0  0
   37.7888   -7.2233   25.3915 O   0  5  0  0  0  0
   40.4669   -7.3426   23.5683 H   0  0  0  0  0  0
   38.3418   -9.1905   24.2551 H   0  0  0  0  0  0
   39.0717   -9.3992   22.8260 H   0  0  0  0  0  0
   38.8572   -5.9352   22.3094 H   0  0  0  0  0  0
   37.6401   -7.1455   22.4718 H   0  0  0  0  0  0
   40.2418   -9.4498   18.9308 H   0  0  0  0  0  0
   40.3763  -10.2833   16.6456 H   0  0  0  0  0  0
   40.7985   -8.7199   14.7740 H   0  0  0  0  0  0
   41.0677   -6.3043   15.2146 H   0  0  0  0  0  0
   40.8934   -5.4364   17.4966 H   0  0  0  0  0  0
   41.2195   -4.5755   21.3752 H   0  0  0  0  0  0
   40.1013   -2.4158   21.5789 H   0  0  0  0  0  0
   38.0471   -1.9512   20.2861 H   0  0  0  0  0  0
   37.1331   -3.6513   18.7470 H   0  0  0  0  0  0
   38.2223   -5.8452   18.5506 H   0  0  0  0  0  0
   41.4852   -8.5041   21.9107 H   0  0  0  0  0  0
   43.7509   -8.6653   22.6968 H   0  0  0  0  0  0
   46.5879   -6.6667   21.1799 H   0  0  0  0  0  0
   45.8439   -5.7704   23.3773 H   0  0  0  0  0  0
   45.4554   -7.3895   23.9530 H   0  0  0  0  0  0
   48.2178   -6.2562   23.3312 H   0  0  0  0  0  0
   47.5947   -6.6984   24.8930 H   0  0  0  0  0  0
   49.1625   -8.4302   23.9421 H   0  0  0  0  0  0
   47.5855   -9.0780   24.3091 H   0  0  0  0  0  0
   48.6146   -8.2867   21.5416 H   0  0  0  0  0  0
   48.2965   -9.9093   22.1035 H   0  0  0  0  0  0
   45.8876   -9.4442   22.2711 H   0  0  0  0  0  0
   46.4705   -9.0599   20.6555 H   0  0  0  0  0  0
   44.9702   -5.6351   19.9039 H   0  0  0  0  0  0
   42.6692   -5.4190   19.1360 H   0  0  0  0  0  0
  1  2  1  0  0  0
  1 34  1  0  0  0
  1 35  1  0  0  0
  2 33  1  0  0  0
  2  3  1  0  0  0
  2 30  1  0  0  0
  3  4  1  0  0  0
  3 36  1  0  0  0
  3 37  1  0  0  0
  4  5  1  0  0  0
  5  6  1  0  0  0
  5 12  1  0  0  0
  5 18  1  0  0  0
  6 11  1  0  0  0
  6  7  2  0  0  0
  7  8  1  0  0  0
  7 38  1  0  0  0
  8  9  2  0  0  0
  8 39  1  0  0  0
  9 10  1  0  0  0
  9 40  1  0  0  0
 10 11  2  0  0  0
 10 41  1  0  0  0
 11 42  1  0  0  0
 12 17  1  0  0  0
 12 13  2  0  0  0
 13 14  1  0  0  0
 13 43  1  0  0  0
 14 15  2  0  0  0
 14 44  1  0  0  0
 15 16  1  0  0  0
 15 45  1  0  0  0
 16 17  2  0  0  0
 16 46  1  0  0  0
 17 47  1  0  0  0
 18 29  1  0  0  0
 18 19  2  0  0  0
 19 20  1  0  0  0
 19 48  1  0  0  0
 20 21  2  0  0  0
 20 49  1  0  0  0
 21 22  1  0  0  0
 21 28  1  0  0  0
 22 27  1  0  0  0
 22 23  1  0  0  0
 22 50  1  0  0  0
 23 24  1  0  0  0
 23 51  1  0  0  0
 23 52  1  0  0  0
 24 25  1  0  0  0
 24 53  1  0  0  0
 24 54  1  0  0  0
 25 26  1  0  0  0
 25 55  1  0  0  0
 25 56  1  0  0  0
 26 27  1  0  0  0
 26 57  1  0  0  0
 26 58  1  0  0  0
 27 59  1  0  0  0
 27 60  1  0  0  0
 28 29  2  0  0  0
 28 61  1  0  0  0
 29 62  1  0  0  0
 30 31  2  0  0  0
 30 32  1  0  0  0
M  CHG  1  32  -1
M  END
> <Tot Q>
-1

> <Source File Index>
763

> <i_f3d_flags>
0

> <subgroup collapsed>
0

> <Ionization Penalty>
2.2599

> <State Penalty>
2.4074

> <docking score>
-4.9341

> <glide emodel>
-72.6519

> <glide gscore>
-7.34155

> <Source File>
Sries24757_dock_SP_confgen_100_lib.maegz

> <Source Path>
C:\Users\yujie\Desktop\two_s\data

> <entry id>
9676

> <subgroup title>
a

> <subgroupid>
Sries24757_dock_SP_confgen_100_lib

$$$$
