lig11
                    3D
 Schrodinger Suite 2020-3.
 47 49  0  0  1  0            999 V2000
   37.2078   -7.4667   23.4654 N   0  3  0  0  0  0
   38.7045   -7.3986   23.7875 C   0  0  1  0  0  0
   39.4160   -6.7119   22.6024 C   0  0  0  0  0  0
   39.2507   -7.5767   20.9960 S   0  0  0  0  0  0
   40.4375   -6.6865   19.8793 C   0  0  0  0  0  0
   40.4346   -7.3047   18.4484 C   0  0  0  0  0  0
   40.1628   -8.6669   18.2394 C   0  0  0  0  0  0
   40.2057   -9.2199   16.9627 C   0  0  0  0  0  0
   40.5278   -8.4166   15.8733 C   0  0  0  0  0  0
   40.8037   -7.0656   16.0543 C   0  0  0  0  0  0
   40.7459   -6.5118   17.3309 C   0  0  0  0  0  0
   39.8676   -5.2390   19.9175 C   0  0  0  0  0  0
   40.4025   -4.2619   20.7718 C   0  0  0  0  0  0
   39.7748   -3.0278   20.9224 C   0  0  0  0  0  0
   38.6231   -2.7448   20.1951 C   0  0  0  0  0  0
   38.1011   -3.6809   19.3086 C   0  0  0  0  0  0
   38.7207   -4.9194   19.1704 C   0  0  0  0  0  0
   41.9126   -6.8374   20.3608 C   0  0  0  0  0  0
   42.3002   -7.8480   21.2586 C   0  0  0  0  0  0
   43.6298   -8.0099   21.6256 C   0  0  0  0  0  0
   44.5991   -7.1768   21.0844 C   0  0  0  0  0  0
   46.5964   -7.4779   21.6125 I   0  0  0  0  0  0
   44.2469   -6.1683   20.1929 C   0  0  0  0  0  0
   42.9093   -5.9917   19.8446 C   0  0  0  0  0  0
   38.8611   -6.6662   25.1500 C   0  0  0  0  0  0
   37.9058   -6.6655   25.9638 O   0  0  0  0  0  0
   39.9639   -6.1315   25.3995 O   0  5  0  0  0  0
   38.9988   -8.4440   23.8866 H   0  0  0  0  0  0
   36.7171   -7.9186   24.2230 H   0  0  0  0  0  0
   36.8446   -6.5279   23.3419 H   0  0  0  0  0  0
   40.4770   -6.6004   22.8240 H   0  0  0  0  0  0
   39.0189   -5.7019   22.4947 H   0  0  0  0  0  0
   39.9379   -9.3239   19.0650 H   0  0  0  0  0  0
   40.0016  -10.2726   16.8229 H   0  0  0  0  0  0
   40.5681   -8.8462   14.8818 H   0  0  0  0  0  0
   41.0591   -6.4481   15.2061 H   0  0  0  0  0  0
   40.9687   -5.4618   17.4492 H   0  0  0  0  0  0
   41.2736   -4.4665   21.3751 H   0  0  0  0  0  0
   40.1796   -2.2968   21.6071 H   0  0  0  0  0  0
   38.1286   -1.7922   20.3219 H   0  0  0  0  0  0
   37.2034   -3.4582   18.7510 H   0  0  0  0  0  0
   38.2693   -5.6555   18.5201 H   0  0  0  0  0  0
   41.5898   -8.5449   21.6740 H   0  0  0  0  0  0
   43.9115   -8.7957   22.3115 H   0  0  0  0  0  0
   45.0110   -5.5344   19.7670 H   0  0  0  0  0  0
   42.6544   -5.2097   19.1449 H   0  0  0  0  0  0
   37.0556   -7.9963   22.6158 H   0  0  0  0  0  0
  1  2  1  0  0  0
  1 29  1  0  0  0
  1 30  1  0  0  0
  1 47  1  0  0  0
  2 28  1  0  0  0
  2  3  1  0  0  0
  2 25  1  0  0  0
  3  4  1  0  0  0
  3 31  1  0  0  0
  3 32  1  0  0  0
  4  5  1  0  0  0
  5  6  1  0  0  0
  5 12  1  0  0  0
  5 18  1  0  0  0
  6 11  1  0  0  0
  6  7  2  0  0  0
  7  8  1  0  0  0
  7 33  1  0  0  0
  8  9  2  0  0  0
  8 34  1  0  0  0
  9 10  1  0  0  0
  9 35  1  0  0  0
 10 11  2  0  0  0
 10 36  1  0  0  0
 11 37  1  0  0  0
 12 17  1  0  0  0
 12 13  2  0  0  0
 13 14  1  0  0  0
 13 38  1  0  0  0
 14 15  2  0  0  0
 14 39  1  0  0  0
 15 16  1  0  0  0
 15 40  1  0  0  0
 16 17  2  0  0  0
 16 41  1  0  0  0
 17 42  1  0  0  0
 18 24  1  0  0  0
 18 19  2  0  0  0
 19 20  1  0  0  0
 19 43  1  0  0  0
 20 21  2  0  0  0
 20 44  1  0  0  0
 21 22  1  0  0  0
 21 23  1  0  0  0
 23 24  2  0  0  0
 23 45  1  0  0  0
 24 46  1  0  0  0
 25 26  2  0  0  0
 25 27  1  0  0  0
M  CHG  2   1   1  27  -1
M  END
> <s_m_source_file>
/home/user-home/yujie/0_PBCNetv2/data/0_0_high_sim/0_noncov/Sries24757/ligprep_input.csv

> <i_m_source_file_index>
12

> <i_lp_mmshare_version>
51139

> <i_f3d_flags>
0

> <s_epik_input>
W2NIXTFbY0hdW2NIXVtjSF1bY0hdYzFDKFNbQ0gyXVtDQEhdKFtOSDJdKUMoPU8pW09IXSkoYzJbY0hdW2NIXVtjSF1bY0hdW2NIXTIpYzNbY0hdW2NIXWMoSSlbY0hdW2NIXTM=

> <s_epik_cmdline>
J2VwaWtfcHl0aG9uJywgJy1waHQnLCAnMi4wJywgJy1waCcsICc3LjQnLCAnLXRuJywgJzgnLCAnLW1hJywgJzIwMCcsICctaW1hZScsICc8aW5maWxlLm1hZT4nLCAnLW9tYWUnLCAnPG91dGZpbGUubWFlPic=

> <r_epik_Ionization_Penalty>
  0.0140

> <r_epik_Ionization_Penalty_Charging>
  0.0140

> <r_epik_Ionization_Penalty_Neutral>
  0.0000

> <r_epik_State_Penalty>
  0.0109

> <r_epik_Charging_Adjusted_Penalty>
0.0248384

> <i_epik_Tot_Q>
0

> <i_epik_Tot_abs_Q>
2

> <s_lp_Force_Field>
OPLS3e

> <r_lp_Energy>
37.2272

> <b_lp_Chiralities_Consistent>
1

> <s_lp_Variant>
lig11-1

> <s_i_glide_gridfile>
Sries16467-001-gridgen

> <i_i_glide_lignum>
23

> <i_i_glide_rotatable_bonds>
7

> <r_i_docking_score>
-7.67191609428582

> <r_i_glide_ligand_efficiency>
-0.284145040529105

> <r_i_glide_ligand_efficiency_sa>
-0.852435120650818

> <r_i_glide_ligand_efficiency_ln>
-1.78589558532787

> <r_i_glide_gscore>
-7.68280139428582

> <r_i_glide_lipo>
-4.79049349021995

> <r_i_glide_hbond>
-0.2

> <r_i_glide_metal>
-0

> <r_i_glide_rewards>
-0.147476113636362

> <r_i_glide_evdw>
-46.2036094665527

> <r_i_glide_ecoul>
-4.06422996520996

> <r_i_glide_erotb>
0.509673074381691

> <r_i_glide_esite>
-0.134689896702075

> <r_i_glide_emodel>
-76.513129471704

> <r_i_glide_energy>
-50.2678394317627

> <r_i_glide_einternal>
3.64305639266968

> <i_i_glide_confnum>
7

> <i_i_glide_posenum>
47

> <r_i_glide_eff_state_penalty>
0.0108853

$$$$
