lig0
                    3D
 Schrodinger Suite 2020-3.
 47 49  0  0  1  0            999 V2000
   37.2793   -7.4667   23.3753 N   0  3  0  0  0  0
   38.7651   -7.4218   23.7608 C   0  0  1  0  0  0
   39.5599   -6.7794   22.5996 C   0  0  0  0  0  0
   39.4871   -7.6849   21.0083 S   0  0  0  0  0  0
   40.5561   -6.7025   19.8431 C   0  0  0  0  0  0
   42.0593   -6.7150   20.2573 C   0  0  0  0  0  0
   42.9502   -5.8333   19.6228 C   0  0  0  0  0  0
   44.3116   -5.8666   19.9012 C   0  0  0  0  0  0
   44.8032   -6.7589   20.8469 C   0  0  0  0  0  0
   43.9420   -7.6335   21.4997 C   0  0  0  0  0  0
   42.5817   -7.6183   21.2007 C   0  0  0  0  0  0
   40.5436   -7.3319   18.4138 C   0  0  0  0  0  0
   40.3698   -8.7129   18.2214 C   0  0  0  0  0  0
   40.4036   -9.2721   16.9462 C   0  0  0  0  0  0
   40.6251   -8.4566   15.8417 C   0  0  0  0  0  0
   40.8036   -7.0866   16.0049 C   0  0  0  0  0  0
   40.7460   -6.5277   17.2786 C   0  0  0  0  0  0
   39.8876   -5.2958   19.8919 C   0  0  0  0  0  0
   40.3946   -4.2667   20.7035 C   0  0  0  0  0  0
   39.6969   -3.0710   20.8566 C   0  0  0  0  0  0
   38.5011   -2.8769   20.1752 C   0  0  0  0  0  0
   38.0066   -3.8618   19.3260 C   0  0  0  0  0  0
   38.6943   -5.0641   19.1876 C   0  0  0  0  0  0
   38.8717   -6.6666   25.1168 C   0  0  0  0  0  0
   39.9604   -6.1171   25.3968 O   0  0  0  0  0  0
   37.8903   -6.6665   25.8993 O   0  5  0  0  0  0
   39.0301   -8.4707   23.8969 H   0  0  0  0  0  0
   36.7482   -7.8911   24.1216 H   0  0  0  0  0  0
   36.9403   -6.5246   23.2163 H   0  0  0  0  0  0
   40.6087   -6.6731   22.8774 H   0  0  0  0  0  0
   39.1794   -5.7695   22.4498 H   0  0  0  0  0  0
   42.5940   -5.1259   18.8890 H   0  0  0  0  0  0
   44.9840   -5.1979   19.3854 H   0  0  0  0  0  0
   45.8629   -6.7764   21.0657 H   0  0  0  0  0  0
   44.3292   -8.3336   22.2264 H   0  0  0  0  0  0
   41.9552   -8.3369   21.7057 H   0  0  0  0  0  0
   40.2294   -9.3796   19.0585 H   0  0  0  0  0  0
   40.2713  -10.3381   16.8191 H   0  0  0  0  0  0
   40.6604   -8.8901   14.8516 H   0  0  0  0  0  0
   40.9793   -6.4586   15.1440 H   0  0  0  0  0  0
   40.8872   -5.4614   17.3795 H   0  0  0  0  0  0
   41.3010   -4.4022   21.2748 H   0  0  0  0  0  0
   40.0826   -2.3017   21.5102 H   0  0  0  0  0  0
   37.9518   -1.9545   20.3056 H   0  0  0  0  0  0
   37.0764   -3.7049   18.8020 H   0  0  0  0  0  0
   38.2649   -5.8400   18.5680 H   0  0  0  0  0  0
   37.1502   -8.0103   22.5312 H   0  0  0  0  0  0
  1  2  1  0  0  0
  1 28  1  0  0  0
  1 29  1  0  0  0
  1 47  1  0  0  0
  2 27  1  0  0  0
  2  3  1  0  0  0
  2 24  1  0  0  0
  3  4  1  0  0  0
  3 30  1  0  0  0
  3 31  1  0  0  0
  4  5  1  0  0  0
  5  6  1  0  0  0
  5 12  1  0  0  0
  5 18  1  0  0  0
  6 11  1  0  0  0
  6  7  2  0  0  0
  7  8  1  0  0  0
  7 32  1  0  0  0
  8  9  2  0  0  0
  8 33  1  0  0  0
  9 10  1  0  0  0
  9 34  1  0  0  0
 10 11  2  0  0  0
 10 35  1  0  0  0
 11 36  1  0  0  0
 12 17  1  0  0  0
 12 13  2  0  0  0
 13 14  1  0  0  0
 13 37  1  0  0  0
 14 15  2  0  0  0
 14 38  1  0  0  0
 15 16  1  0  0  0
 15 39  1  0  0  0
 16 17  2  0  0  0
 16 40  1  0  0  0
 17 41  1  0  0  0
 18 23  1  0  0  0
 18 19  2  0  0  0
 19 20  1  0  0  0
 19 42  1  0  0  0
 20 21  2  0  0  0
 20 43  1  0  0  0
 21 22  1  0  0  0
 21 44  1  0  0  0
 22 23  2  0  0  0
 22 45  1  0  0  0
 23 46  1  0  0  0
 24 25  2  0  0  0
 24 26  1  0  0  0
M  CHG  2   1   1  26  -1
M  END
> <s_m_source_file>
/home/user-home/yujie/0_PBCNetv2/data/0_0_high_sim/0_noncov/Sries24757/ligprep_input.csv

> <i_m_source_file_index>
1

> <i_lp_mmshare_version>
51139

> <i_f3d_flags>
0

> <s_epik_input>
W2NIXTFbY0hdW2NIXVtjSF1bY0hdYzFDKFNbQ0gyXVtDQEhdKFtOSDJdKUMoPU8pW09IXSkoYzJbY0hdW2NIXVtjSF1bY0hdW2NIXTIpYzNbY0hdW2NIXVtjSF1bY0hdW2NIXTM=

> <s_epik_cmdline>
J2VwaWtfcHl0aG9uJywgJy1waHQnLCAnMi4wJywgJy1waCcsICc3LjQnLCAnLXRuJywgJzgnLCAnLW1hJywgJzIwMCcsICctaW1hZScsICc8aW5maWxlLm1hZT4nLCAnLW9tYWUnLCAnPG91dGZpbGUubWFlPic=

> <r_epik_Ionization_Penalty>
  0.0137

> <r_epik_Ionization_Penalty_Charging>
  0.0137

> <r_epik_Ionization_Penalty_Neutral>
  0.0000

> <r_epik_State_Penalty>
  0.0106

> <r_epik_Charging_Adjusted_Penalty>
0.0243095

> <i_epik_Tot_Q>
0

> <i_epik_Tot_abs_Q>
2

> <s_lp_Force_Field>
OPLS3e

> <r_lp_Energy>
35.1738

> <b_lp_Chiralities_Consistent>
1

> <s_lp_Variant>
lig0-1

> <s_i_glide_gridfile>
Sries16467-001-gridgen

> <i_i_glide_lignum>
1

> <i_i_glide_rotatable_bonds>
7

> <r_i_docking_score>
-8.26831196998266

> <r_i_glide_ligand_efficiency>
-0.318011998845487

> <r_i_glide_ligand_efficiency_sa>
-0.942109295262964

> <r_i_glide_ligand_efficiency_ln>
-1.94178593560599

> <r_i_glide_gscore>
-8.27895666998266

> <r_i_glide_lipo>
-4.85213494797521

> <r_i_glide_hbond>
-0.2

> <r_i_glide_metal>
-0

> <r_i_glide_rewards>
-1.03086154545454

> <r_i_glide_evdw>
-44.788330078125

> <r_i_glide_ecoul>
-4.63268804550171

> <r_i_glide_erotb>
0.872608372762497

> <r_i_glide_esite>
-0.1342488385839

> <r_i_glide_emodel>
-78.7072830238515

> <r_i_glide_energy>
-49.4210181236267

> <r_i_glide_einternal>
3.20656180381775

> <i_i_glide_confnum>
119

> <i_i_glide_posenum>
390

> <r_i_glide_eff_state_penalty>
0.0106447

$$$$
