lig6
                    3D
 Schrodinger Suite 2020-3.
 55 57  0  0  1  0            999 V2000
   38.4264   -0.3104   20.2466 C   0  0  0  0  0  0
   38.1198   -1.5746   21.0529 C   0  0  0  0  0  0
   38.4035   -1.3036   22.5488 C   0  0  0  0  0  0
   38.8277   -2.8373   20.5532 C   0  0  0  0  0  0
   38.2184   -3.7081   19.6436 C   0  0  0  0  0  0
   38.7880   -4.9587   19.3822 C   0  0  0  0  0  0
   39.9763   -5.3537   20.0212 C   0  0  0  0  0  0
   40.4973   -6.8198   19.9301 C   0  0  0  0  0  0
   39.2794   -7.7971   20.9565 S   0  0  0  0  0  0
   39.0115   -6.8316   22.5031 C   0  0  0  0  0  0
   38.9693   -7.6534   23.8185 C   0  0  2  0  0  0
   38.0043   -8.7729   23.7755 N   0  0  0  0  0  0
   38.7510   -6.7007   25.0560 C   0  0  0  0  0  0
   37.6382   -6.7721   25.6352 O   0  0  0  0  0  0
   39.7132   -5.9370   25.3028 O   0  5  0  0  0  0
   40.5101   -7.3768   18.4705 C   0  0  0  0  0  0
   40.7171   -6.5262   17.3708 C   0  0  0  0  0  0
   40.8038   -7.0369   16.0774 C   0  0  0  0  0  0
   40.6351   -8.4000   15.8569 C   0  0  0  0  0  0
   40.4025   -9.2589   16.9248 C   0  0  0  0  0  0
   40.3519   -8.7498   18.2195 C   0  0  0  0  0  0
   41.9629   -6.9655   20.4596 C   0  0  0  0  0  0
   43.0095   -6.3469   19.7497 C   0  0  0  0  0  0
   44.3290   -6.4404   20.1788 C   0  0  0  0  0  0
   44.6252   -7.1514   21.3363 C   0  0  0  0  0  0
   43.6123   -7.7750   22.0583 C   0  0  0  0  0  0
   42.2927   -7.6866   21.6215 C   0  0  0  0  0  0
   40.6265   -4.4208   20.8372 C   0  0  0  0  0  0
   40.0514   -3.1920   21.1073 C   0  0  0  0  0  0
   39.9720   -8.0643   23.9396 H   0  0  0  0  0  0
   38.0035   -0.3264   19.2496 H   0  0  0  0  0  0
   39.4973   -0.1149   20.1811 H   0  0  0  0  0  0
   37.9660    0.5333   20.7419 H   0  0  0  0  0  0
   37.0498   -1.7637   20.9660 H   0  0  0  0  0  0
   38.4041   -2.2268   23.1294 H   0  0  0  0  0  0
   39.3677   -0.8186   22.7062 H   0  0  0  0  0  0
   37.6316   -0.6647   22.9720 H   0  0  0  0  0  0
   37.2642   -3.4554   19.2050 H   0  0  0  0  0  0
   38.2570   -5.6565   18.7499 H   0  0  0  0  0  0
   39.8104   -6.1017   22.6078 H   0  0  0  0  0  0
   38.0847   -6.2718   22.3782 H   0  0  0  0  0  0
   37.1620   -8.4657   24.2452 H   0  0  0  0  0  0
   37.7371   -8.9833   22.8164 H   0  0  0  0  0  0
   40.8525   -5.4644   17.5140 H   0  0  0  0  0  0
   40.9884   -6.3746   15.2447 H   0  0  0  0  0  0
   40.6883   -8.7939   14.8516 H   0  0  0  0  0  0
   40.2776  -10.3198   16.7551 H   0  0  0  0  0  0
   40.2062   -9.4471   19.0302 H   0  0  0  0  0  0
   42.8076   -5.7745   18.8568 H   0  0  0  0  0  0
   45.1197   -5.9651   19.6137 H   0  0  0  0  0  0
   45.6496   -7.2215   21.6727 H   0  0  0  0  0  0
   43.8482   -8.3239   22.9591 H   0  0  0  0  0  0
   41.5422   -8.1844   22.2150 H   0  0  0  0  0  0
   41.5435   -4.6569   21.3547 H   0  0  0  0  0  0
   40.5593   -2.5385   21.7997 H   0  0  0  0  0  0
  1  2  1  0  0  0
  1 31  1  0  0  0
  1 32  1  0  0  0
  1 33  1  0  0  0
  2  3  1  0  0  0
  2  4  1  0  0  0
  2 34  1  0  0  0
  3 35  1  0  0  0
  3 36  1  0  0  0
  3 37  1  0  0  0
  4 29  1  0  0  0
  4  5  2  0  0  0
  5  6  1  0  0  0
  5 38  1  0  0  0
  6  7  2  0  0  0
  6 39  1  0  0  0
  7  8  1  0  0  0
  7 28  1  0  0  0
  8  9  1  0  0  0
  8 16  1  0  0  0
  8 22  1  0  0  0
  9 10  1  0  0  0
 10 11  1  0  0  0
 10 40  1  0  0  0
 10 41  1  0  0  0
 11 30  1  0  0  0
 11 12  1  0  0  0
 11 13  1  0  0  0
 12 42  1  0  0  0
 12 43  1  0  0  0
 13 14  2  0  0  0
 13 15  1  0  0  0
 16 21  1  0  0  0
 16 17  2  0  0  0
 17 18  1  0  0  0
 17 44  1  0  0  0
 18 19  2  0  0  0
 18 45  1  0  0  0
 19 20  1  0  0  0
 19 46  1  0  0  0
 20 21  2  0  0  0
 20 47  1  0  0  0
 21 48  1  0  0  0
 22 27  1  0  0  0
 22 23  2  0  0  0
 23 24  1  0  0  0
 23 49  1  0  0  0
 24 25  2  0  0  0
 24 50  1  0  0  0
 25 26  1  0  0  0
 25 51  1  0  0  0
 26 27  2  0  0  0
 26 52  1  0  0  0
 27 53  1  0  0  0
 28 29  2  0  0  0
 28 54  1  0  0  0
 29 55  1  0  0  0
M  CHG  1  15  -1
M  END
> <s_m_source_file>
/home/user-home/yujie/0_PBCNetv2/data/0_0_high_sim/0_noncov/Sries24757/ligprep_input.csv

> <i_m_source_file_index>
7

> <i_lp_mmshare_version>
51139

> <i_f3d_flags>
0

> <s_epik_input>
W0NIM11bQ0hdKFtDSDNdKWMxW2NIXVtjSF1jKFtjSF1bY0hdMSlDKFNbQ0gyXVtDQEhdKFtOSDJdKUMoPU8pW09IXSkoYzJbY0hdW2NIXVtjSF1bY0hdW2NIXTIpYzNbY0hdW2NIXVtjSF1bY0hdW2NIXTM=

> <s_epik_cmdline>
J2VwaWtfcHl0aG9uJywgJy1waHQnLCAnMi4wJywgJy1waCcsICc3LjQnLCAnLXRuJywgJzgnLCAnLW1hJywgJzIwMCcsICctaW1hZScsICc8aW5maWxlLm1hZT4nLCAnLW9tYWUnLCAnPG91dGZpbGUubWFlPic=

> <r_epik_Ionization_Penalty>
  2.2405

> <r_epik_Ionization_Penalty_Charging>
  0.0002

> <r_epik_Ionization_Penalty_Neutral>
  2.2403

> <r_epik_State_Penalty>
  2.3867

> <r_epik_Charging_Adjusted_Penalty>
2.38687

> <i_epik_Tot_Q>
-1

> <i_epik_Tot_abs_Q>
1

> <s_lp_Force_Field>
OPLS3e

> <r_lp_Energy>
58.6039

> <b_lp_Chiralities_Consistent>
1

> <s_lp_Variant>
lig6-2

> <s_i_glide_gridfile>
Sries16467-001-gridgen

> <i_i_glide_lignum>
14

> <i_i_glide_rotatable_bonds>
8

> <r_i_docking_score>
-5.79827994289536

> <r_i_glide_ligand_efficiency>
-0.199940687686047

> <r_i_glide_ligand_efficiency_sa>
-0.614281138227552

> <r_i_glide_ligand_efficiency_ln>
-1.32765907522993

> <r_i_glide_gscore>
-8.18494994289536

> <r_i_glide_lipo>
-4.94652085577659

> <r_i_glide_hbond>
-0.334572086059131

> <r_i_glide_metal>
-0

> <r_i_glide_rewards>
-0.797887087260535

> <r_i_glide_evdw>
-46.0576591491699

> <r_i_glide_ecoul>
-3.22652530670166

> <r_i_glide_erotb>
0.720194398312015

> <r_i_glide_esite>
-0.0393025586473737

> <r_i_glide_emodel>
-64.1904572938897

> <r_i_glide_energy>
-49.2841844558716

> <r_i_glide_einternal>
7.37173461914062

> <i_i_glide_confnum>
129

> <i_i_glide_posenum>
194

> <r_i_glide_eff_state_penalty>
2.38667

$$$$
