lig12
                    3D
 Schrodinger Suite 2020-3.
 47 49  0  0  1  0            999 V2000
   37.4298   -7.4667   23.4158 N   0  3  0  0  0  0
   38.9311   -7.5771   23.7313 C   0  0  1  0  0  0
   39.7124   -6.9010   22.5848 C   0  0  0  0  0  0
   39.5294   -7.7060   20.9527 S   0  0  0  0  0  0
   40.5965   -6.7182   19.7948 C   0  0  0  0  0  0
   42.1089   -6.7720   20.1687 C   0  0  0  0  0  0
   42.6433   -7.7364   21.0411 C   0  0  0  0  0  0
   44.0054   -7.7586   21.3301 C   0  0  0  0  0  0
   44.8525   -6.8254   20.7419 C   0  0  0  0  0  0
   44.3492   -5.8745   19.8620 C   0  0  0  0  0  0
   42.9886   -5.8447   19.5855 C   0  0  0  0  0  0
   40.5453   -7.3235   18.3572 C   0  0  0  0  0  0
   40.3582   -8.7019   18.1519 C   0  0  0  0  0  0
   40.3870   -9.2518   16.8730 C   0  0  0  0  0  0
   40.6139   -8.4293   15.7754 C   0  0  0  0  0  0
   40.8036   -7.0629   15.9508 C   0  0  0  0  0  0
   40.7535   -6.5115   17.2297 C   0  0  0  0  0  0
   39.9803   -5.2894   19.9099 C   0  0  0  0  0  0
   38.8137   -4.9432   19.2070 C   0  0  0  0  0  0
   38.2171   -3.6948   19.3891 C   0  0  0  0  0  0
   38.7777   -2.7837   20.2836 C   0  0  0  0  0  0
   37.9714   -1.0832   20.5752 Br  0  0  0  0  0  0
   39.9383   -3.1013   20.9758 C   0  0  0  0  0  0
   40.5375   -4.3384   20.7812 C   0  0  0  0  0  0
   39.2018   -6.9157   25.1114 C   0  0  0  0  0  0
   38.2635   -6.4126   25.7750 O   0  0  0  0  0  0
   40.3861   -6.9438   25.5121 O   0  5  0  0  0  0
   39.0978   -8.6541   23.7802 H   0  0  0  0  0  0
   36.8906   -7.8911   24.1564 H   0  0  0  0  0  0
   37.1678   -6.4907   23.3319 H   0  0  0  0  0  0
   40.7760   -6.8685   22.8266 H   0  0  0  0  0  0
   39.3829   -5.8640   22.5122 H   0  0  0  0  0  0
   42.0223   -8.4936   21.4943 H   0  0  0  0  0  0
   44.4058   -8.5048   21.9991 H   0  0  0  0  0  0
   45.9119   -6.8486   20.9539 H   0  0  0  0  0  0
   45.0115   -5.1633   19.3929 H   0  0  0  0  0  0
   42.6215   -5.0948   18.8999 H   0  0  0  0  0  0
   40.2181   -9.3771   18.9815 H   0  0  0  0  0  0
   40.2475  -10.3159   16.7377 H   0  0  0  0  0  0
   40.6467   -8.8543   14.7815 H   0  0  0  0  0  0
   40.9856   -6.4294   15.0953 H   0  0  0  0  0  0
   40.9123   -5.4492   17.3399 H   0  0  0  0  0  0
   38.3436   -5.6571   18.5449 H   0  0  0  0  0  0
   37.3107   -3.4428   18.8585 H   0  0  0  0  0  0
   40.3743   -2.3925   21.6656 H   0  0  0  0  0  0
   41.4215   -4.5615   21.3595 H   0  0  0  0  0  0
   37.2169   -7.9429   22.5480 H   0  0  0  0  0  0
  1  2  1  0  0  0
  1 29  1  0  0  0
  1 30  1  0  0  0
  1 47  1  0  0  0
  2 28  1  0  0  0
  2  3  1  0  0  0
  2 25  1  0  0  0
  3  4  1  0  0  0
  3 31  1  0  0  0
  3 32  1  0  0  0
  4  5  1  0  0  0
  5  6  1  0  0  0
  5 12  1  0  0  0
  5 18  1  0  0  0
  6 11  1  0  0  0
  6  7  2  0  0  0
  7  8  1  0  0  0
  7 33  1  0  0  0
  8  9  2  0  0  0
  8 34  1  0  0  0
  9 10  1  0  0  0
  9 35  1  0  0  0
 10 11  2  0  0  0
 10 36  1  0  0  0
 11 37  1  0  0  0
 12 17  1  0  0  0
 12 13  2  0  0  0
 13 14  1  0  0  0
 13 38  1  0  0  0
 14 15  2  0  0  0
 14 39  1  0  0  0
 15 16  1  0  0  0
 15 40  1  0  0  0
 16 17  2  0  0  0
 16 41  1  0  0  0
 17 42  1  0  0  0
 18 24  1  0  0  0
 18 19  2  0  0  0
 19 20  1  0  0  0
 19 43  1  0  0  0
 20 21  2  0  0  0
 20 44  1  0  0  0
 21 22  1  0  0  0
 21 23  1  0  0  0
 23 24  2  0  0  0
 23 45  1  0  0  0
 24 46  1  0  0  0
 25 26  2  0  0  0
 25 27  1  0  0  0
M  CHG  2   1   1  27  -1
M  END
> <s_m_source_file>
/home/user-home/yujie/0_PBCNetv2/data/0_0_high_sim/0_noncov/Sries24757/ligprep_input.csv

> <i_m_source_file_index>
13

> <i_lp_mmshare_version>
51139

> <i_f3d_flags>
0

> <s_epik_input>
W2NIXTFbY0hdW2NIXVtjSF1bY0hdYzFDKFNbQ0gyXVtDQEhdKFtOSDJdKUMoPU8pW09IXSkoYzJbY0hdW2NIXVtjSF1bY0hdW2NIXTIpYzNbY0hdW2NIXWMoQnIpW2NIXVtjSF0z

> <s_epik_cmdline>
J2VwaWtfcHl0aG9uJywgJy1waHQnLCAnMi4wJywgJy1waCcsICc3LjQnLCAnLXRuJywgJzgnLCAnLW1hJywgJzIwMCcsICctaW1hZScsICc8aW5maWxlLm1hZT4nLCAnLW9tYWUnLCAnPG91dGZpbGUubWFlPic=

> <r_epik_Ionization_Penalty>
  0.0139

> <r_epik_Ionization_Penalty_Charging>
  0.0139

> <r_epik_Ionization_Penalty_Neutral>
  0.0000

> <r_epik_State_Penalty>
  0.0109

> <r_epik_Charging_Adjusted_Penalty>
0.0247939

> <i_epik_Tot_Q>
0

> <i_epik_Tot_abs_Q>
2

> <s_lp_Force_Field>
OPLS3e

> <r_lp_Energy>
36.3409

> <b_lp_Chiralities_Consistent>
1

> <s_lp_Variant>
lig12-1

> <s_i_glide_gridfile>
Sries16467-001-gridgen

> <i_i_glide_lignum>
25

> <i_i_glide_rotatable_bonds>
7

> <r_i_docking_score>
-8.31258805187248

> <r_i_glide_ligand_efficiency>
-0.307873631550833

> <r_i_glide_ligand_efficiency_sa>
-0.923620893637796

> <r_i_glide_ligand_efficiency_ln>
-1.93503345475133

> <r_i_glide_gscore>
-8.32345315187248

> <r_i_glide_lipo>
-4.95065443953153

> <r_i_glide_hbond>
-0.253104701219118

> <r_i_glide_metal>
-0

> <r_i_glide_rewards>
-0.551267196969696

> <r_i_glide_evdw>
-48.626033782959

> <r_i_glide_ecoul>
-4.2907338142395

> <r_i_glide_erotb>
0.612684005656356

> <r_i_glide_esite>
-0.106199058524619

> <r_i_glide_emodel>
-74.9960017613379

> <r_i_glide_energy>
-52.9167675971985

> <r_i_glide_einternal>
15.7350778579712

> <i_i_glide_confnum>
20

> <i_i_glide_posenum>
38

> <r_i_glide_eff_state_penalty>
0.0108651

$$$$
