lig_syk_CHEMBL3265031
                    3D
 Schrodinger Suite 2020-3.
 59 64  0  0  1  0            999 V2000
   -6.8046   -4.5794   16.8186 C   0  0  0  0  0  0
   -6.6159   -3.4298   15.7864 C   0  0  1  0  0  0
   -7.9804   -3.1875   15.5248 O   0  0  0  0  0  0
   -5.9211   -2.2928   16.5854 C   0  0  0  0  0  0
   -4.3853   -2.3098   16.5725 C   0  0  0  0  0  0
   -3.8687   -2.5872   15.1439 N   0  3  1  0  0  0
   -2.4039   -2.3548   15.0370 C   0  0  0  0  0  0
   -1.5195   -3.1359   15.7780 C   0  0  0  0  0  0
   -0.1704   -2.8054   15.7726 C   0  0  0  0  0  0
    0.2943   -1.7229   15.0217 C   0  0  0  0  0  0
    1.6587   -1.4194   15.1509 N   0  0  0  0  0  0
    2.5231   -0.4534   14.6087 C   0  0  0  0  0  0
    2.1050    0.3778   13.6143 N   0  0  0  0  0  0
    2.9465    1.3215   13.1069 C   0  0  0  0  0  0
    2.3918    2.2519   12.0798 C   0  0  0  0  0  0
    3.2060    2.6991   11.0274 C   0  0  0  0  0  0
    2.7432    3.5769   10.0473 C   0  0  0  0  0  0
    1.4195    4.0247   10.1284 C   0  0  0  0  0  0
    0.5757    4.8924    9.3745 C   0  0  0  0  0  0
   -0.6205    4.9732    9.8969 N   0  0  0  0  0  0
   -0.6202    4.1906   10.9908 N   0  0  0  0  0  0
    0.6004    3.5763   11.1901 C   0  0  0  0  0  0
    1.0617    2.6953   12.1724 C   0  0  0  0  0  0
    4.2578    1.4420   13.5646 C   0  0  0  0  0  0
    4.6669    0.6212   14.5766 N   0  0  0  0  0  0
    5.8424    0.5455   15.2702 C   0  0  0  0  0  0
    5.6366   -0.4364   16.2334 C   0  0  0  0  0  0
    4.4461   -0.9951   16.1751 N   0  0  0  0  0  0
    3.8232   -0.3476   15.1483 C   0  0  0  0  0  0
   -0.6044   -0.9846   14.2385 C   0  0  0  0  0  0
   -1.9631   -1.2950   14.2462 C   0  0  0  0  0  0
   -4.2912   -4.0055   14.7159 C   0  0  0  0  0  0
   -5.8265   -4.0674   14.6052 C   0  0  0  0  0  0
   -1.4476    4.1187   11.5634 H   0  0  0  0  0  0
   -5.8467   -4.9304   17.2056 H   0  0  0  0  0  0
   -7.3075   -5.4533   16.3997 H   0  0  0  0  0  0
   -7.3937   -4.2746   17.6879 H   0  0  0  0  0  0
   -8.4143   -4.0234   15.3364 H   0  0  0  0  0  0
   -6.2304   -1.3338   16.1739 H   0  0  0  0  0  0
   -6.2091   -2.3017   17.6393 H   0  0  0  0  0  0
   -3.9852   -1.3455   16.8884 H   0  0  0  0  0  0
   -3.9707   -3.0787   17.2278 H   0  0  0  0  0  0
   -1.8638   -3.9486   16.3994 H   0  0  0  0  0  0
    0.5092   -3.3801   16.3877 H   0  0  0  0  0  0
    2.1303   -2.0161   15.8182 H   0  0  0  0  0  0
    4.2257    2.3489   10.9554 H   0  0  0  0  0  0
    3.3903    3.9023    9.2461 H   0  0  0  0  0  0
    0.8298    5.4509    8.4870 H   0  0  0  0  0  0
    0.4232    2.3750   12.9821 H   0  0  0  0  0  0
    4.9600    2.1857   13.2199 H   0  0  0  0  0  0
    6.6917    1.1780   15.0569 H   0  0  0  0  0  0
    6.3559   -0.7460   16.9765 H   0  0  0  0  0  0
   -0.2772   -0.1475   13.6454 H   0  0  0  0  0  0
   -2.6475   -0.6972   13.6638 H   0  0  0  0  0  0
   -3.8096   -4.2065   13.7574 H   0  0  0  0  0  0
   -3.8955   -4.7018   15.4578 H   0  0  0  0  0  0
   -6.0724   -5.1231   14.4796 H   0  0  0  0  0  0
   -6.0984   -3.5494   13.6847 H   0  0  0  0  0  0
   -4.3083   -1.9371   14.5128 H   0  0  0  0  0  0
  1  2  1  0  0  0
  1 35  1  0  0  0
  1 36  1  0  0  0
  1 37  1  0  0  0
  2 33  1  0  0  0
  2  3  1  0  0  0
  2  4  1  0  0  0
  3 38  1  0  0  0
  4  5  1  0  0  0
  4 39  1  0  0  0
  4 40  1  0  0  0
  5  6  1  0  0  0
  5 41  1  0  0  0
  5 42  1  0  0  0
  6  7  1  0  0  0
  6 32  1  0  0  0
  6 59  1  0  0  0
  7 31  1  0  0  0
  7  8  2  0  0  0
  8  9  1  0  0  0
  8 43  1  0  0  0
  9 10  2  0  0  0
  9 44  1  0  0  0
 10 11  1  0  0  0
 10 30  1  0  0  0
 11 12  1  0  0  0
 11 45  1  0  0  0
 12 29  1  0  0  0
 12 13  2  0  0  0
 13 14  1  0  0  0
 14 15  1  0  0  0
 14 24  2  0  0  0
 15 23  1  0  0  0
 15 16  2  0  0  0
 16 17  1  0  0  0
 16 46  1  0  0  0
 17 18  2  0  0  0
 17 47  1  0  0  0
 18 22  1  0  0  0
 18 19  1  0  0  0
 19 20  2  0  0  0
 19 48  1  0  0  0
 20 21  1  0  0  0
 21 34  1  0  0  0
 21 22  1  0  0  0
 22 23  2  0  0  0
 23 49  1  0  0  0
 24 25  1  0  0  0
 24 50  1  0  0  0
 25 29  1  0  0  0
 25 26  1  0  0  0
 26 27  2  0  0  0
 26 51  1  0  0  0
 27 28  1  0  0  0
 27 52  1  0  0  0
 28 29  2  0  0  0
 30 31  2  0  0  0
 30 53  1  0  0  0
 31 54  1  0  0  0
 32 33  1  0  0  0
 32 55  1  0  0  0
 32 56  1  0  0  0
 33 57  1  0  0  0
 33 58  1  0  0  0
M  CHG  1   6   1
M  END
> <s_m_source_file>
/home/user-home/yujie/0_PBCNetv2/data/FEP/syk/inp_ligprep.csv

> <i_m_source_file_index>
38

> <i_lp_mmshare_version>
51139

> <i_f3d_flags>
0

> <s_epik_input>
W0NIM11DMShbT0hdKVtDSDJdW0NIMl1OKFtDSDJdW0NIMl0xKWMyW2NIXVtjSF1jKFtjSF1bY0hdMilbTkhdYyhjKG4zNCluW2NIXVtjSF00KW5jKFtjSF0zKS1jKFtjSF1bY0hdNSlbY0hdYyhjNTYpW25IXW5bY0hdNg==

> <s_epik_cmdline>
J2VwaWtfcHl0aG9uJywgJy1waHQnLCAnMi4wJywgJy1waCcsICc3LjQnLCAnLXRuJywgJzgnLCAnLW1hJywgJzIwMCcsICctaW1hZScsICc8aW5maWxlLm1hZT4nLCAnLW9tYWUnLCAnPG91dGZpbGUubWFlPic=

> <r_lp_tautomer_probability>
0.980392

> <r_epik_Ionization_Penalty>
  0.5767

> <r_epik_Ionization_Penalty_Charging>
  0.5767

> <r_epik_Ionization_Penalty_Neutral>
  0.0000

> <r_epik_State_Penalty>
  0.5938

> <r_epik_Charging_Adjusted_Penalty>
1.1705

> <i_epik_Tot_Q>
1

> <i_epik_Tot_abs_Q>
1

> <s_lp_Force_Field>
OPLS3e

> <r_lp_Energy>
49.4787

> <b_lp_Chiralities_Consistent>
1

> <s_lp_Variant>
lig_syk_CHEMBL3265031-2

> <s_i_glide_gridfile>
syk-001-gridgen

> <i_i_glide_lignum>
59

> <i_i_glide_rotatable_bonds>
5

> <r_i_docking_score>
-6.64123779589291

> <r_i_glide_ligand_efficiency>
-0.201249630178573

> <r_i_glide_ligand_efficiency_sa>
-0.645515096944387

> <r_i_glide_ligand_efficiency_ln>
-1.4769768993176

> <r_i_glide_gscore>
-7.23508779589291

> <r_i_glide_lipo>
-2.575194025599

> <r_i_glide_hbond>
-0.19342708425574

> <r_i_glide_metal>
-0

> <r_i_glide_rewards>
-1.82881253514304

> <r_i_glide_evdw>
-47.1354904174805

> <r_i_glide_ecoul>
-4.39586782455444

> <r_i_glide_erotb>
0.411574299420441

> <r_i_glide_esite>
-0.0330737557583837

> <r_i_glide_emodel>
-74.6534886867067

> <r_i_glide_energy>
-51.5313582420349

> <r_i_glide_einternal>
6.00315570831299

> <i_i_glide_confnum>
119

> <i_i_glide_posenum>
316

> <r_i_glide_eff_state_penalty>
0.59385

$$$$
