lig_syk_CHEMBL3265002
                    3D
 Schrodinger Suite 2020-3.
 65 70  0  0  1  0            999 V2000
   -4.5524   -2.6199   15.2726 C   0  0  0  0  0  0
   -3.8857   -1.6484   14.4728 O   0  0  0  0  0  0
   -2.5049   -1.5512   14.5321 C   0  0  0  0  0  0
   -1.7024   -2.3967   15.3144 C   0  0  0  0  0  0
   -0.3251   -2.2100   15.3750 C   0  0  0  0  0  0
    0.2886   -1.1829   14.6599 C   0  0  0  0  0  0
    1.6705   -1.0167   14.8614 N   0  0  0  0  0  0
    2.6447   -0.1224   14.3804 C   0  0  0  0  0  0
    2.3537    0.7349   13.3685 N   0  0  0  0  0  0
    3.2874    1.6144   12.9112 C   0  0  0  0  0  0
    2.8816    2.4902   11.7724 C   0  0  0  0  0  0
    3.8138    2.8679   10.7952 C   0  0  0  0  0  0
    3.4289    3.6359    9.6991 C   0  0  0  0  0  0
    2.1003    4.0256    9.5512 C   0  0  0  0  0  0
    1.1512    3.6834   10.5203 C   0  0  0  0  0  0
   -0.2843    4.0965   10.3442 C   0  0  0  0  0  0
   -0.8065    4.0108    9.2325 O   0  0  0  0  0  0
   -0.8839    4.5504   11.4673 N   0  0  0  0  0  0
   -2.1931    5.0296   11.6595 C   0  0  0  0  0  0
   -2.5424    5.3577   12.9733 C   0  0  0  0  0  0
   -3.8223    5.8221   13.2696 C   0  0  0  0  0  0
   -4.7663    5.9875   12.2485 C   0  0  0  0  0  0
   -6.1519    6.4745   12.5421 C   0  0  0  0  0  0
   -6.7270    6.4486   13.7260 N   0  0  0  0  0  0
   -7.9574    6.8999   13.5381 C   0  0  0  0  0  0
   -8.1784    7.2781   12.2241 C   0  0  0  0  0  0
   -6.9998    6.9970   11.5930 N   0  0  0  0  0  0
   -4.4097    5.6736   10.9325 C   0  0  0  0  0  0
   -3.1368    5.1975   10.6366 C   0  0  0  0  0  0
    1.5556    2.9239   11.6281 C   0  0  0  0  0  0
    4.5592    1.6735   13.4782 C   0  0  0  0  0  0
    4.8471    0.8199   14.5053 N   0  0  0  0  0  0
    5.9723    0.6505   15.2638 C   0  0  0  0  0  0
    5.6522   -0.3485   16.1768 C   0  0  0  0  0  0
    4.4296   -0.8158   16.0423 N   0  0  0  0  0  0
    3.9149   -0.1112   14.9944 C   0  0  0  0  0  0
   -0.5027   -0.3636   13.8437 C   0  0  0  0  0  0
   -1.8985   -0.5357   13.7765 C   0  0  0  0  0  0
   -2.7343    0.2673   13.0191 O   0  0  0  0  0  0
   -2.1714    1.2700   12.1766 C   0  0  0  0  0  0
   -6.7941    7.1271   10.6119 H   0  0  0  0  0  0
   -5.6283   -2.5409   15.1151 H   0  0  0  0  0  0
   -4.2561   -3.6359   15.0048 H   0  0  0  0  0  0
   -4.3656   -2.4626   16.3375 H   0  0  0  0  0  0
   -2.1275   -3.1897   15.9098 H   0  0  0  0  0  0
    0.2609   -2.8569   16.0167 H   0  0  0  0  0  0
    2.0436   -1.6343   15.5698 H   0  0  0  0  0  0
    4.8436    2.5516   10.8695 H   0  0  0  0  0  0
    4.1562    3.9121    8.9522 H   0  0  0  0  0  0
    1.8172    4.6044    8.6822 H   0  0  0  0  0  0
   -0.3042    4.5712   12.2916 H   0  0  0  0  0  0
   -1.8263    5.2514   13.7770 H   0  0  0  0  0  0
   -4.0734    6.0579   14.2938 H   0  0  0  0  0  0
   -8.6695    6.9505   14.3488 H   0  0  0  0  0  0
   -9.0318    7.6804   11.6975 H   0  0  0  0  0  0
   -5.1142    5.7860   10.1243 H   0  0  0  0  0  0
   -2.9184    4.9803    9.6042 H   0  0  0  0  0  0
    0.8304    2.6356   12.3765 H   0  0  0  0  0  0
    5.3340    2.3620   13.1793 H   0  0  0  0  0  0
    6.8703    1.2287   15.1097 H   0  0  0  0  0  0
    6.3031   -0.7458   16.9416 H   0  0  0  0  0  0
   -0.0487    0.4335   13.2855 H   0  0  0  0  0  0
   -2.9665    1.7637   11.6169 H   0  0  0  0  0  0
   -1.6586    2.0331   12.7639 H   0  0  0  0  0  0
   -1.4757    0.8447   11.4503 H   0  0  0  0  0  0
  1  2  1  0  0  0
  1 42  1  0  0  0
  1 43  1  0  0  0
  1 44  1  0  0  0
  2  3  1  0  0  0
  3 38  1  0  0  0
  3  4  2  0  0  0
  4  5  1  0  0  0
  4 45  1  0  0  0
  5  6  2  0  0  0
  5 46  1  0  0  0
  6  7  1  0  0  0
  6 37  1  0  0  0
  7  8  1  0  0  0
  7 47  1  0  0  0
  8 36  1  0  0  0
  8  9  2  0  0  0
  9 10  1  0  0  0
 10 11  1  0  0  0
 10 31  2  0  0  0
 11 30  1  0  0  0
 11 12  2  0  0  0
 12 13  1  0  0  0
 12 48  1  0  0  0
 13 14  2  0  0  0
 13 49  1  0  0  0
 14 15  1  0  0  0
 14 50  1  0  0  0
 15 16  1  0  0  0
 15 30  2  0  0  0
 16 17  2  0  0  0
 16 18  1  0  0  0
 18 19  1  0  0  0
 18 51  1  0  0  0
 19 29  1  0  0  0
 19 20  2  0  0  0
 20 21  1  0  0  0
 20 52  1  0  0  0
 21 22  2  0  0  0
 21 53  1  0  0  0
 22 23  1  0  0  0
 22 28  1  0  0  0
 23 27  1  0  0  0
 23 24  2  0  0  0
 24 25  1  0  0  0
 25 26  2  0  0  0
 25 54  1  0  0  0
 26 27  1  0  0  0
 26 55  1  0  0  0
 27 41  1  0  0  0
 28 29  2  0  0  0
 28 56  1  0  0  0
 29 57  1  0  0  0
 30 58  1  0  0  0
 31 32  1  0  0  0
 31 59  1  0  0  0
 32 36  1  0  0  0
 32 33  1  0  0  0
 33 34  2  0  0  0
 33 60  1  0  0  0
 34 35  1  0  0  0
 34 61  1  0  0  0
 35 36  2  0  0  0
 37 38  2  0  0  0
 37 62  1  0  0  0
 38 39  1  0  0  0
 39 40  1  0  0  0
 40 63  1  0  0  0
 40 64  1  0  0  0
 40 65  1  0  0  0
M  END
> <s_m_source_file>
/home/user-home/yujie/0_PBCNetv2/data/FEP/syk/inp_ligprep.csv

> <i_m_source_file_index>
37

> <i_lp_mmshare_version>
51139

> <i_f3d_flags>
0

> <s_epik_input>
W0NIM11PYzFbY0hdW2NIXWMoW2NIXWMxT1tDSDNdKVtOSF1jKGMobjIzKW5bY0hdW2NIXTMpbmMoW2NIXTIpLWM0W2NIXVtjSF1bY0hdYyhbY0hdNClDKD1PKVtOSF1jNVtjSF1bY0hdYyhbY0hdW2NIXTUpLWM2bltjSF1bY0hdW25IXTY=

> <s_epik_cmdline>
J2VwaWtfcHl0aG9uJywgJy1waHQnLCAnMi4wJywgJy1waCcsICc3LjQnLCAnLXRuJywgJzgnLCAnLW1hJywgJzIwMCcsICctaW1hZScsICc8aW5maWxlLm1hZT4nLCAnLW9tYWUnLCAnPG91dGZpbGUubWFlPic=

> <r_lp_tautomer_probability>
0.5

> <r_epik_Ionization_Penalty>
  0.0322

> <r_epik_Ionization_Penalty_Charging>
  0.0322

> <r_epik_Ionization_Penalty_Neutral>
  0.0000

> <r_epik_State_Penalty>
  0.0259

> <r_epik_Charging_Adjusted_Penalty>
0.0580992

> <i_epik_Tot_Q>
0

> <i_epik_Tot_abs_Q>
0

> <s_lp_Force_Field>
OPLS3e

> <r_lp_Energy>
61.464

> <b_lp_Chiralities_Consistent>
1

> <s_lp_Variant>
lig_syk_CHEMBL3265002-1

> <s_i_glide_gridfile>
syk-001-gridgen

> <i_i_glide_lignum>
56

> <i_i_glide_rotatable_bonds>
9

> <r_i_docking_score>
-8.83365224327368

> <r_i_glide_ligand_efficiency>
-0.220841306081842

> <r_i_glide_ligand_efficiency_sa>
-0.755266641936536

> <r_i_glide_ligand_efficiency_ln>
-1.88395806070962

> <r_i_glide_gscore>
-8.85955434327368

> <r_i_glide_lipo>
-3.19466313789357

> <r_i_glide_hbond>
-0.438034903594359

> <r_i_glide_metal>
-0

> <r_i_glide_rewards>
-1.59929680624808

> <r_i_glide_evdw>
-55.6171836853027

> <r_i_glide_ecoul>
-9.04146385192871

> <r_i_glide_erotb>
0.510846349302278

> <r_i_glide_esite>
-0.00132708278550806

> <r_i_glide_emodel>
-96.0111529787977

> <r_i_glide_energy>
-64.6586475372314

> <r_i_glide_einternal>
9.25669384002686

> <i_i_glide_confnum>
83

> <i_i_glide_posenum>
186

> <r_i_glide_eff_state_penalty>
0.0259021

$$$$
