lig_syk_CHEMBL3265020
                    3D
 Schrodinger Suite 2020-3.
 48 52  0  0  1  0            999 V2000
   -4.7212   -2.7448   15.2918 C   0  0  0  0  0  0
   -4.0272   -1.8160   14.4656 O   0  0  0  0  0  0
   -2.6468   -1.7348   14.5587 C   0  0  0  0  0  0
   -1.8746   -2.5759   15.3755 C   0  0  0  0  0  0
   -0.4954   -2.4045   15.4731 C   0  0  0  0  0  0
    0.1506   -1.4006   14.7527 C   0  0  0  0  0  0
    1.5310   -1.2476   14.9702 N   0  0  0  0  0  0
    2.5140   -0.3669   14.4887 C   0  0  0  0  0  0
    2.2280    0.4806   13.4594 N   0  0  0  0  0  0
    3.1564    1.3716   13.0141 C   0  0  0  0  0  0
    2.7351    2.3081   11.9308 C   0  0  0  0  0  0
    3.6523    2.7153   10.9498 C   0  0  0  0  0  0
    3.3119    3.5762    9.9064 C   0  0  0  0  0  0
    1.9897    4.0286    9.8643 C   0  0  0  0  0  0
    1.3440    4.8665    8.9770 N   0  0  0  0  0  0
    0.0235    5.0093    9.3334 C   0  0  0  0  0  0
   -0.2131    4.2772   10.4773 C   0  0  0  0  0  0
    1.0239    3.6441   10.8377 C   0  0  0  0  0  0
    1.4173    2.7909   11.8776 C   0  0  0  0  0  0
    4.4296    1.4248   13.5771 C   0  0  0  0  0  0
    4.7147    0.5820   14.6115 N   0  0  0  0  0  0
    5.8319    0.4522   15.3862 C   0  0  0  0  0  0
    5.5098   -0.5205   16.3282 C   0  0  0  0  0  0
    4.3039   -1.0293   16.1752 N   0  0  0  0  0  0
    3.7830   -0.3475   15.1139 C   0  0  0  0  0  0
   -0.6116   -0.5887   13.9033 C   0  0  0  0  0  0
   -2.0047   -0.7444   13.7970 C   0  0  0  0  0  0
   -2.8046    0.0510   12.9908 O   0  0  0  0  0  0
   -2.1898    0.9614   12.0804 C   0  0  0  0  0  0
    1.7467    5.3257    8.1722 H   0  0  0  0  0  0
   -5.7914   -2.6589   15.1083 H   0  0  0  0  0  0
   -4.5503   -2.5458   16.3504 H   0  0  0  0  0  0
   -4.4284   -3.7706   15.0689 H   0  0  0  0  0  0
   -2.3239   -3.3547   15.9763 H   0  0  0  0  0  0
    0.0648   -3.0430   16.1408 H   0  0  0  0  0  0
    1.8844   -1.8672   15.6855 H   0  0  0  0  0  0
    4.6669    2.3452   10.9843 H   0  0  0  0  0  0
    4.0346    3.8654    9.1594 H   0  0  0  0  0  0
   -0.6324    5.6350    8.7397 H   0  0  0  0  0  0
   -1.1597    4.2110   10.9933 H   0  0  0  0  0  0
    0.7010    2.5017   12.6301 H   0  0  0  0  0  0
    5.1949    2.1289   13.2920 H   0  0  0  0  0  0
    6.7199    1.0481   15.2400 H   0  0  0  0  0  0
    6.1604   -0.8475   17.1266 H   0  0  0  0  0  0
   -0.1309    0.1888   13.3406 H   0  0  0  0  0  0
   -2.9574    1.4431   11.4776 H   0  0  0  0  0  0
   -1.6383    1.7473   12.6040 H   0  0  0  0  0  0
   -1.5114    0.4479   11.3943 H   0  0  0  0  0  0
  1  2  1  0  0  0
  1 31  1  0  0  0
  1 32  1  0  0  0
  1 33  1  0  0  0
  2  3  1  0  0  0
  3 27  1  0  0  0
  3  4  2  0  0  0
  4  5  1  0  0  0
  4 34  1  0  0  0
  5  6  2  0  0  0
  5 35  1  0  0  0
  6  7  1  0  0  0
  6 26  1  0  0  0
  7  8  1  0  0  0
  7 36  1  0  0  0
  8 25  1  0  0  0
  8  9  2  0  0  0
  9 10  1  0  0  0
 10 11  1  0  0  0
 10 20  2  0  0  0
 11 19  1  0  0  0
 11 12  2  0  0  0
 12 13  1  0  0  0
 12 37  1  0  0  0
 13 14  2  0  0  0
 13 38  1  0  0  0
 14 18  1  0  0  0
 14 15  1  0  0  0
 15 30  1  0  0  0
 15 16  1  0  0  0
 16 17  2  0  0  0
 16 39  1  0  0  0
 17 18  1  0  0  0
 17 40  1  0  0  0
 18 19  2  0  0  0
 19 41  1  0  0  0
 20 21  1  0  0  0
 20 42  1  0  0  0
 21 25  1  0  0  0
 21 22  1  0  0  0
 22 23  2  0  0  0
 22 43  1  0  0  0
 23 24  1  0  0  0
 23 44  1  0  0  0
 24 25  2  0  0  0
 26 27  2  0  0  0
 26 45  1  0  0  0
 27 28  1  0  0  0
 28 29  1  0  0  0
 29 46  1  0  0  0
 29 47  1  0  0  0
 29 48  1  0  0  0
M  END
> <s_m_source_file>
/home/user-home/yujie/0_PBCNetv2/data/FEP/syk/inp_ligprep.csv

> <i_m_source_file_index>
34

> <i_lp_mmshare_version>
51139

> <i_f3d_flags>
0

> <s_epik_input>
W0NIM11PYzFbY0hdW2NIXWMoW2NIXWMxT1tDSDNdKVtOSF1jKGMobjIzKW5bY0hdW2NIXTMpbmMoW2NIXTIpLWMoW2NIXVtjSF00KVtjSF1jKGM0NSlbY0hdW2NIXVtuSF01

> <s_epik_cmdline>
J2VwaWtfcHl0aG9uJywgJy1waHQnLCAnMi4wJywgJy1waCcsICc3LjQnLCAnLXRuJywgJzgnLCAnLW1hJywgJzIwMCcsICctaW1hZScsICc8aW5maWxlLm1hZT4nLCAnLW9tYWUnLCAnPG91dGZpbGUubWFlPic=

> <r_lp_tautomer_probability>
1

> <r_epik_Ionization_Penalty>
  0.0009

> <r_epik_Ionization_Penalty_Charging>
  0.0009

> <r_epik_Ionization_Penalty_Neutral>
  0.0000

> <r_epik_State_Penalty>
  0.0005

> <r_epik_Charging_Adjusted_Penalty>
0.00140069

> <i_epik_Tot_Q>
0

> <i_epik_Tot_abs_Q>
0

> <s_lp_Force_Field>
OPLS3e

> <r_lp_Energy>
45.9746

> <b_lp_Chiralities_Consistent>
1

> <s_lp_Variant>
lig_syk_CHEMBL3265020-1

> <s_i_glide_gridfile>
syk-001-gridgen

> <i_i_glide_lignum>
53

> <i_i_glide_rotatable_bonds>
5

> <r_i_docking_score>
-8.24995341096776

> <r_i_glide_ligand_efficiency>
-0.284481152102337

> <r_i_glide_ligand_efficiency_sa>
-0.87401622921348

> <r_i_glide_ligand_efficiency_ln>
-1.88903013034345

> <r_i_glide_gscore>
-8.25050253796776

> <r_i_glide_lipo>
-2.77768329499912

> <r_i_glide_hbond>
-0.340790255916964

> <r_i_glide_metal>
-0

> <r_i_glide_rewards>
-2.25629913063985

> <r_i_glide_evdw>
-45.3883323669434

> <r_i_glide_ecoul>
-6.66115808486938

> <r_i_glide_erotb>
0.392860474665746

> <r_i_glide_esite>
0

> <r_i_glide_emodel>
-77.48580842739

> <r_i_glide_energy>
-52.0494904518127

> <r_i_glide_einternal>
2.08777618408203

> <i_i_glide_confnum>
7

> <i_i_glide_posenum>
372

> <r_i_glide_eff_state_penalty>
0.000549127

$$$$
