lig_syk_CHEMBL3265035
                    3D
 Schrodinger Suite 2020-3.
 51 55  0  0  1  0            999 V2000
   -4.2440   -2.5732   12.9157 C   0  0  0  0  0  0
   -3.8989   -2.3342   14.3208 N   0  0  0  0  0  0
   -4.5676   -3.2156   15.2969 C   0  0  0  0  0  0
   -6.1128   -3.2082   15.3601 C   0  0  0  0  0  0
   -6.7173   -1.9478   15.5667 O   0  0  0  0  0  0
   -2.5212   -2.0552   14.5252 C   0  0  0  0  0  0
   -1.7116   -2.8293   15.3720 C   0  0  0  0  0  0
   -0.3622   -2.5304   15.5361 C   0  0  0  0  0  0
    0.2109   -1.4518   14.8641 C   0  0  0  0  0  0
    1.5768   -1.2164   15.0924 N   0  0  0  0  0  0
    2.5394   -0.3495   14.5455 C   0  0  0  0  0  0
    2.2215    0.4854   13.5161 N   0  0  0  0  0  0
    3.1432    1.3609   13.0267 C   0  0  0  0  0  0
    2.6973    2.3062   11.9598 C   0  0  0  0  0  0
    3.5885    2.6810   10.9423 C   0  0  0  0  0  0
    3.2320    3.5709    9.9292 C   0  0  0  0  0  0
    1.9388    4.1059    9.9400 C   0  0  0  0  0  0
    1.1933    5.0192    9.1381 C   0  0  0  0  0  0
   -0.0215    5.1801    9.5946 N   0  0  0  0  0  0
   -0.1268    4.4129   10.6947 N   0  0  0  0  0  0
    1.0408    3.7270   10.9639 C   0  0  0  0  0  0
    1.3960    2.8359   11.9802 C   0  0  0  0  0  0
    4.4370    1.4067   13.5414 C   0  0  0  0  0  0
    4.7493    0.5769   14.5791 N   0  0  0  0  0  0
    5.8835    0.4544   15.3299 C   0  0  0  0  0  0
    5.5732   -0.4831   16.3064 C   0  0  0  0  0  0
    4.3715   -1.0061   16.1760 N   0  0  0  0  0  0
    3.8276   -0.3363   15.1216 C   0  0  0  0  0  0
   -0.5902   -0.6628   14.0326 C   0  0  0  0  0  0
   -1.9412   -0.9604   13.8710 C   0  0  0  0  0  0
   -0.9855    4.3992   11.2242 H   0  0  0  0  0  0
   -4.0545   -3.6111   12.6425 H   0  0  0  0  0  0
   -5.2935   -2.3507   12.7294 H   0  0  0  0  0  0
   -3.6849   -1.9470   12.2227 H   0  0  0  0  0  0
   -4.2498   -2.9136   16.2970 H   0  0  0  0  0  0
   -4.1931   -4.2404   15.3078 H   0  0  0  0  0  0
   -6.5881   -4.1199   15.7234 H   0  0  0  0  0  0
   -6.4071   -3.3296   14.3192 H   0  0  0  0  0  0
   -6.6983   -1.7661   16.5118 H   0  0  0  0  0  0
   -2.1020   -3.6797   15.9094 H   0  0  0  0  0  0
    0.2347   -3.1466   16.1951 H   0  0  0  0  0  0
    1.9625   -1.8004   15.8227 H   0  0  0  0  0  0
    4.5853    2.2642   10.9264 H   0  0  0  0  0  0
    3.9363    3.8405    9.1565 H   0  0  0  0  0  0
    1.5292    5.5494    8.2595 H   0  0  0  0  0  0
    0.6989    2.5692   12.7607 H   0  0  0  0  0  0
    5.1981    2.1025   13.2230 H   0  0  0  0  0  0
    6.7683    1.0476   15.1541 H   0  0  0  0  0  0
    6.2298   -0.7754   17.1119 H   0  0  0  0  0  0
   -0.1959    0.1917   13.5093 H   0  0  0  0  0  0
   -2.5349   -0.3303   13.2267 H   0  0  0  0  0  0
  1  2  1  0  0  0
  1 32  1  0  0  0
  1 33  1  0  0  0
  1 34  1  0  0  0
  2  3  1  0  0  0
  2  6  1  0  0  0
  3  4  1  0  0  0
  3 35  1  0  0  0
  3 36  1  0  0  0
  4  5  1  0  0  0
  4 37  1  0  0  0
  4 38  1  0  0  0
  5 39  1  0  0  0
  6 30  1  0  0  0
  6  7  2  0  0  0
  7  8  1  0  0  0
  7 40  1  0  0  0
  8  9  2  0  0  0
  8 41  1  0  0  0
  9 10  1  0  0  0
  9 29  1  0  0  0
 10 11  1  0  0  0
 10 42  1  0  0  0
 11 28  1  0  0  0
 11 12  2  0  0  0
 12 13  1  0  0  0
 13 14  1  0  0  0
 13 23  2  0  0  0
 14 22  1  0  0  0
 14 15  2  0  0  0
 15 16  1  0  0  0
 15 43  1  0  0  0
 16 17  2  0  0  0
 16 44  1  0  0  0
 17 21  1  0  0  0
 17 18  1  0  0  0
 18 19  2  0  0  0
 18 45  1  0  0  0
 19 20  1  0  0  0
 20 31  1  0  0  0
 20 21  1  0  0  0
 21 22  2  0  0  0
 22 46  1  0  0  0
 23 24  1  0  0  0
 23 47  1  0  0  0
 24 28  1  0  0  0
 24 25  1  0  0  0
 25 26  2  0  0  0
 25 48  1  0  0  0
 26 27  1  0  0  0
 26 49  1  0  0  0
 27 28  2  0  0  0
 29 30  2  0  0  0
 29 50  1  0  0  0
 30 51  1  0  0  0
M  END
> <s_m_source_file>
/home/user-home/yujie/0_PBCNetv2/data/FEP/syk/inp_ligprep.csv

> <i_m_source_file_index>
11

> <i_lp_mmshare_version>
51139

> <i_f3d_flags>
0

> <s_epik_input>
W09IXVtDSDJdW0NIMl1OKFtDSDNdKWMxW2NIXVtjSF1jKFtjSF1bY0hdMSlbTkhdYyhjKG4yMyluW2NIXVtjSF0zKW5jKFtjSF0yKS1jKFtjSF1bY0hdNClbY0hdYyhjNDUpW25IXW5bY0hdNQ==

> <s_epik_cmdline>
J2VwaWtfcHl0aG9uJywgJy1waHQnLCAnMi4wJywgJy1waCcsICc3LjQnLCAnLXRuJywgJzgnLCAnLW1hJywgJzIwMCcsICctaW1hZScsICc8aW5maWxlLm1hZT4nLCAnLW9tYWUnLCAnPG91dGZpbGUubWFlPic=

> <r_lp_tautomer_probability>
0.980392

> <r_epik_Ionization_Penalty>
  0.4336

> <r_epik_Ionization_Penalty_Charging>
  0.0009

> <r_epik_Ionization_Penalty_Neutral>
  0.4327

> <r_epik_State_Penalty>
  0.4389

> <r_epik_Charging_Adjusted_Penalty>
0.439772

> <i_epik_Tot_Q>
0

> <i_epik_Tot_abs_Q>
0

> <s_lp_Force_Field>
OPLS3e

> <r_lp_Energy>
57.112

> <b_lp_Chiralities_Consistent>
1

> <s_lp_Variant>
lig_syk_CHEMBL3265035-2

> <s_i_glide_gridfile>
syk-001-gridgen

> <i_i_glide_lignum>
22

> <i_i_glide_rotatable_bonds>
7

> <r_i_docking_score>
-6.88744435821742

> <r_i_glide_ligand_efficiency>
-0.229581478607247

> <r_i_glide_ligand_efficiency_sa>
-0.713363032284626

> <r_i_glide_ligand_efficiency_ln>
-1.56490240290389

> <r_i_glide_gscore>
-7.32636535821742

> <r_i_glide_lipo>
-2.69304557255764

> <r_i_glide_hbond>
-0.202419063785608

> <r_i_glide_metal>
-0

> <r_i_glide_rewards>
-1.76835149765103

> <r_i_glide_evdw>
-45.2016258239746

> <r_i_glide_ecoul>
-7.34710836410522

> <r_i_glide_erotb>
0.736827700305868

> <r_i_glide_esite>
-0.0372293787144931

> <r_i_glide_emodel>
-74.0783273434988

> <r_i_glide_energy>
-52.5487341880798

> <r_i_glide_einternal>
3.23857617378235

> <i_i_glide_confnum>
144

> <i_i_glide_posenum>
400

> <r_i_glide_eff_state_penalty>
0.438921

$$$$
