lig_syk_CHEMBL3259820
                    3D
 Schrodinger Suite 2020-3.
 48 51  0  0  1  0            999 V2000
   -4.6809   -2.9798   15.8511 C   0  0  0  0  0  0
   -4.0532   -2.0625   14.9607 O   0  0  0  0  0  0
   -2.6741   -1.9477   14.9740 C   0  0  0  0  0  0
   -1.8344   -2.7473   15.7677 C   0  0  0  0  0  0
   -0.4561   -2.5448   15.7752 C   0  0  0  0  0  0
    0.1232   -1.5444   14.9950 C   0  0  0  0  0  0
    1.5100   -1.3516   15.1362 N   0  0  0  0  0  0
    2.4425   -0.4332   14.6161 C   0  0  0  0  0  0
    2.0806    0.4297   13.6316 N   0  0  0  0  0  0
    2.9589    1.3515   13.1557 C   0  0  0  0  0  0
    2.4386    2.3209   12.1488 C   0  0  0  0  0  0
    3.2829    2.8517   11.1639 C   0  0  0  0  0  0
    2.8096    3.7825   10.2446 C   0  0  0  0  0  0
    1.4728    4.2015   10.2891 C   0  0  0  0  0  0
    0.9386    5.2156    9.3119 C   0  0  0  0  0  0
    1.7596    6.2107    8.9754 N   0  0  0  0  0  0
   -0.2026    5.1386    8.8599 O   0  0  0  0  0  0
    0.6167    3.6574   11.2502 C   0  0  0  0  0  0
    1.1008    2.7368   12.1748 C   0  0  0  0  0  0
    4.2659    1.4207   13.6409 C   0  0  0  0  0  0
    4.6292    0.5629   14.6397 N   0  0  0  0  0  0
    5.7851    0.4453   15.3581 C   0  0  0  0  0  0
    5.5314   -0.5605   16.2845 C   0  0  0  0  0  0
    4.3342   -1.1026   16.1753 N   0  0  0  0  0  0
    3.7421   -0.3917   15.1717 C   0  0  0  0  0  0
   -0.7076   -0.7696   14.1751 C   0  0  0  0  0  0
   -2.1035   -0.9614   14.1537 C   0  0  0  0  0  0
   -2.9694   -0.2043   13.3766 O   0  0  0  0  0  0
   -2.4349    0.7390   12.4526 C   0  0  0  0  0  0
   -5.7603   -2.9142   15.7334 H   0  0  0  0  0  0
   -4.3897   -4.0087   15.6361 H   0  0  0  0  0  0
   -4.4504   -2.7513   16.8945 H   0  0  0  0  0  0
   -2.2279   -3.5201   16.4129 H   0  0  0  0  0  0
    0.1569   -3.1570   16.4247 H   0  0  0  0  0  0
    1.9220   -1.9676   15.8245 H   0  0  0  0  0  0
    4.3174    2.5443   11.1074 H   0  0  0  0  0  0
    3.4892    4.1735    9.4998 H   0  0  0  0  0  0
    2.6326    6.3346    9.4657 H   0  0  0  0  0  0
    1.4395    6.9124    8.3254 H   0  0  0  0  0  0
   -0.4207    3.9606   11.3024 H   0  0  0  0  0  0
    0.4280    2.3572   12.9290 H   0  0  0  0  0  0
    4.9962    2.1512   13.3267 H   0  0  0  0  0  0
    6.6497    1.0718   15.1893 H   0  0  0  0  0  0
    6.2268   -0.8904   17.0423 H   0  0  0  0  0  0
   -0.2812    0.0035   13.5645 H   0  0  0  0  0  0
   -3.2444    1.1804   11.8716 H   0  0  0  0  0  0
   -1.9189    1.5513   12.9647 H   0  0  0  0  0  0
   -1.7498    0.2685   11.7439 H   0  0  0  0  0  0
  1  2  1  0  0  0
  1 30  1  0  0  0
  1 31  1  0  0  0
  1 32  1  0  0  0
  2  3  1  0  0  0
  3 27  1  0  0  0
  3  4  2  0  0  0
  4  5  1  0  0  0
  4 33  1  0  0  0
  5  6  2  0  0  0
  5 34  1  0  0  0
  6  7  1  0  0  0
  6 26  1  0  0  0
  7  8  1  0  0  0
  7 35  1  0  0  0
  8 25  1  0  0  0
  8  9  2  0  0  0
  9 10  1  0  0  0
 10 11  1  0  0  0
 10 20  2  0  0  0
 11 19  1  0  0  0
 11 12  2  0  0  0
 12 13  1  0  0  0
 12 36  1  0  0  0
 13 14  2  0  0  0
 13 37  1  0  0  0
 14 15  1  0  0  0
 14 18  1  0  0  0
 15 16  1  0  0  0
 15 17  2  0  0  0
 16 38  1  0  0  0
 16 39  1  0  0  0
 18 19  2  0  0  0
 18 40  1  0  0  0
 19 41  1  0  0  0
 20 21  1  0  0  0
 20 42  1  0  0  0
 21 25  1  0  0  0
 21 22  1  0  0  0
 22 23  2  0  0  0
 22 43  1  0  0  0
 23 24  1  0  0  0
 23 44  1  0  0  0
 24 25  2  0  0  0
 26 27  2  0  0  0
 26 45  1  0  0  0
 27 28  1  0  0  0
 28 29  1  0  0  0
 29 46  1  0  0  0
 29 47  1  0  0  0
 29 48  1  0  0  0
M  END
> <s_m_source_file>
/home/user-home/yujie/0_PBCNetv2/data/FEP/syk/inp_ligprep.csv

> <i_m_source_file_index>
21

> <i_lp_mmshare_version>
51139

> <i_f3d_flags>
0

> <s_epik_input>
W0NIM11PYzFbY0hdW2NIXWMoW2NIXWMxT1tDSDNdKVtOSF1jKGMobjIzKW5bY0hdW2NIXTMpbmMoW2NIXTIpLWM0W2NIXVtjSF1jKEMoPU8pW05IMl0pW2NIXVtjSF00

> <s_epik_cmdline>
J2VwaWtfcHl0aG9uJywgJy1waHQnLCAnMi4wJywgJy1waCcsICc3LjQnLCAnLXRuJywgJzgnLCAnLW1hJywgJzIwMCcsICctaW1hZScsICc8aW5maWxlLm1hZT4nLCAnLW9tYWUnLCAnPG91dGZpbGUubWFlPic=

> <r_lp_tautomer_probability>
1

> <r_epik_Ionization_Penalty>
  0.0009

> <r_epik_Ionization_Penalty_Charging>
  0.0009

> <r_epik_Ionization_Penalty_Neutral>
  0.0000

> <r_epik_State_Penalty>
  0.0005

> <r_epik_Charging_Adjusted_Penalty>
0.00140069

> <i_epik_Tot_Q>
0

> <i_epik_Tot_abs_Q>
0

> <s_lp_Force_Field>
OPLS3e

> <r_lp_Energy>
38.4765

> <b_lp_Chiralities_Consistent>
1

> <s_lp_Variant>
lig_syk_CHEMBL3259820-1

> <s_i_glide_gridfile>
syk-001-gridgen

> <i_i_glide_lignum>
36

> <i_i_glide_rotatable_bonds>
6

> <r_i_docking_score>
-8.17108958580881

> <r_i_glide_ligand_efficiency>
-0.281761709855476

> <r_i_glide_ligand_efficiency_sa>
-0.865661241051347

> <r_i_glide_ligand_efficiency_ln>
-1.87097231419611

> <r_i_glide_gscore>
-8.17163871280881

> <r_i_glide_lipo>
-2.38360961264589

> <r_i_glide_hbond>
-0.406038843537966

> <r_i_glide_metal>
-0

> <r_i_glide_rewards>
-2.2012707760896

> <r_i_glide_evdw>
-44.9877090454102

> <r_i_glide_ecoul>
-8.78000926971436

> <r_i_glide_erotb>
0.385667362192308

> <r_i_glide_esite>
0

> <r_i_glide_emodel>
-79.671435471848

> <r_i_glide_energy>
-53.7677183151245

> <r_i_glide_einternal>
2.41348457336426

> <i_i_glide_confnum>
2

> <i_i_glide_posenum>
358

> <r_i_glide_eff_state_penalty>
0.000549127

$$$$
