lig_syk_CHEMBL3265016
                    3D
 Schrodinger Suite 2020-3.
 48 52  0  0  1  0            999 V2000
   -4.7882   -2.9782   15.1645 C   0  0  0  0  0  0
   -4.1172   -1.9393   14.4515 O   0  0  0  0  0  0
   -2.7442   -1.8120   14.5785 C   0  0  0  0  0  0
   -1.9527   -2.6797   15.3510 C   0  0  0  0  0  0
   -0.5794   -2.4782   15.4612 C   0  0  0  0  0  0
    0.0409   -1.4164   14.8055 C   0  0  0  0  0  0
    1.4172   -1.2469   15.0301 N   0  0  0  0  0  0
    2.4038   -0.3689   14.5464 C   0  0  0  0  0  0
    2.1268    0.4922   13.5293 N   0  0  0  0  0  0
    3.0813    1.3450   13.0671 C   0  0  0  0  0  0
    2.6833    2.2887   11.9827 C   0  0  0  0  0  0
    3.5985    2.6166   10.9723 C   0  0  0  0  0  0
    3.2837    3.4996    9.9416 C   0  0  0  0  0  0
    2.0143    4.0883    9.9196 C   0  0  0  0  0  0
    1.3597    5.0253    9.0547 C   0  0  0  0  0  0
    0.0921    5.2285    9.5573 C   0  0  0  0  0  0
   -0.0667    4.4668   10.6896 N   0  0  0  0  0  0
    1.0856    3.7515   10.9476 C   0  0  0  0  0  0
    1.4006    2.8574   11.9757 C   0  0  0  0  0  0
    4.3656    1.3529   13.6084 C   0  0  0  0  0  0
    4.6393    0.4940   14.6339 N   0  0  0  0  0  0
    5.7689    0.3006   15.3781 C   0  0  0  0  0  0
    5.4294   -0.6841   16.3027 C   0  0  0  0  0  0
    4.1974   -1.1325   16.1748 N   0  0  0  0  0  0
    3.6809   -0.3961   15.1476 C   0  0  0  0  0  0
   -0.7399   -0.5663   14.0133 C   0  0  0  0  0  0
   -2.1297   -0.7502   13.8949 C   0  0  0  0  0  0
   -2.9483    0.0778   13.1421 O   0  0  0  0  0  0
   -2.3591    1.0725   12.3092 C   0  0  0  0  0  0
   -0.9159    4.4762   11.2353 H   0  0  0  0  0  0
   -5.8586   -2.9185   14.9666 H   0  0  0  0  0  0
   -4.6491   -2.8813   16.2446 H   0  0  0  0  0  0
   -4.4493   -3.9658   14.8445 H   0  0  0  0  0  0
   -2.3833   -3.5075   15.8938 H   0  0  0  0  0  0
   -0.0015   -3.1492   16.0841 H   0  0  0  0  0  0
    1.7858   -1.8789   15.7305 H   0  0  0  0  0  0
    4.5815    2.1689   10.9779 H   0  0  0  0  0  0
    4.0087    3.7312    9.1766 H   0  0  0  0  0  0
    1.7705    5.5017    8.1762 H   0  0  0  0  0  0
   -0.7127    5.8640    9.2115 H   0  0  0  0  0  0
    0.6878    2.6248   12.7526 H   0  0  0  0  0  0
    5.1543    2.0219   13.2995 H   0  0  0  0  0  0
    6.6806    0.8562   15.2183 H   0  0  0  0  0  0
    6.0840   -1.0753   17.0648 H   0  0  0  0  0  0
   -0.2753    0.2630   13.5107 H   0  0  0  0  0  0
   -3.1391    1.5666   11.7313 H   0  0  0  0  0  0
   -1.8484    1.8375   12.8972 H   0  0  0  0  0  0
   -1.6533    0.6373   11.5985 H   0  0  0  0  0  0
  1  2  1  0  0  0
  1 31  1  0  0  0
  1 32  1  0  0  0
  1 33  1  0  0  0
  2  3  1  0  0  0
  3 27  1  0  0  0
  3  4  2  0  0  0
  4  5  1  0  0  0
  4 34  1  0  0  0
  5  6  2  0  0  0
  5 35  1  0  0  0
  6  7  1  0  0  0
  6 26  1  0  0  0
  7  8  1  0  0  0
  7 36  1  0  0  0
  8 25  1  0  0  0
  8  9  2  0  0  0
  9 10  1  0  0  0
 10 11  1  0  0  0
 10 20  2  0  0  0
 11 19  1  0  0  0
 11 12  2  0  0  0
 12 13  1  0  0  0
 12 37  1  0  0  0
 13 14  2  0  0  0
 13 38  1  0  0  0
 14 18  1  0  0  0
 14 15  1  0  0  0
 15 16  2  0  0  0
 15 39  1  0  0  0
 16 17  1  0  0  0
 16 40  1  0  0  0
 17 30  1  0  0  0
 17 18  1  0  0  0
 18 19  2  0  0  0
 19 41  1  0  0  0
 20 21  1  0  0  0
 20 42  1  0  0  0
 21 25  1  0  0  0
 21 22  1  0  0  0
 22 23  2  0  0  0
 22 43  1  0  0  0
 23 24  1  0  0  0
 23 44  1  0  0  0
 24 25  2  0  0  0
 26 27  2  0  0  0
 26 45  1  0  0  0
 27 28  1  0  0  0
 28 29  1  0  0  0
 29 46  1  0  0  0
 29 47  1  0  0  0
 29 48  1  0  0  0
M  END
> <s_m_source_file>
/home/user-home/yujie/0_PBCNetv2/data/FEP/syk/inp_ligprep.csv

> <i_m_source_file_index>
32

> <i_lp_mmshare_version>
51139

> <i_f3d_flags>
0

> <s_epik_input>
W0NIM11PYzFbY0hdW2NIXWMoW2NIXWMxT1tDSDNdKVtOSF1jKGMobjIzKW5bY0hdW2NIXTMpbmMoW2NIXTIpLWMoW2NIXVtjSF00KVtjSF1jKGM0NSlbbkhdW2NIXVtjSF01

> <s_epik_cmdline>
J2VwaWtfcHl0aG9uJywgJy1waHQnLCAnMi4wJywgJy1waCcsICc3LjQnLCAnLXRuJywgJzgnLCAnLW1hJywgJzIwMCcsICctaW1hZScsICc8aW5maWxlLm1hZT4nLCAnLW9tYWUnLCAnPG91dGZpbGUubWFlPic=

> <r_lp_tautomer_probability>
1

> <r_epik_Ionization_Penalty>
  0.0009

> <r_epik_Ionization_Penalty_Charging>
  0.0009

> <r_epik_Ionization_Penalty_Neutral>
  0.0000

> <r_epik_State_Penalty>
  0.0005

> <r_epik_Charging_Adjusted_Penalty>
0.00140069

> <i_epik_Tot_Q>
0

> <i_epik_Tot_abs_Q>
0

> <s_lp_Force_Field>
OPLS3e

> <r_lp_Energy>
45.4277

> <b_lp_Chiralities_Consistent>
1

> <s_lp_Variant>
lig_syk_CHEMBL3265016-1

> <s_i_glide_gridfile>
syk-001-gridgen

> <i_i_glide_lignum>
51

> <i_i_glide_rotatable_bonds>
5

> <r_i_docking_score>
-8.03784251816903

> <r_i_glide_ligand_efficiency>
-0.277166983385139

> <r_i_glide_ligand_efficiency_sa>
-0.851544785622951

> <r_i_glide_ligand_efficiency_ln>
-1.8404621145607

> <r_i_glide_gscore>
-8.03839164516903

> <r_i_glide_lipo>
-2.60603805023637

> <r_i_glide_hbond>
-0.411319665786503

> <r_i_glide_metal>
-0

> <r_i_glide_rewards>
-2.19846097314022

> <r_i_glide_evdw>
-43.7952156066895

> <r_i_glide_ecoul>
-6.83781766891479

> <r_i_glide_erotb>
0.392860474665746

> <r_i_glide_esite>
0

> <r_i_glide_emodel>
-76.4619671499321

> <r_i_glide_energy>
-50.6330332756042

> <r_i_glide_einternal>
0.708310425281525

> <i_i_glide_confnum>
8

> <i_i_glide_posenum>
141

> <r_i_glide_eff_state_penalty>
0.000549127

$$$$
