lig_syk_CHEMBL3265011
                    3D
 Schrodinger Suite 2020-3.
 51 54  0  0  1  0            999 V2000
   -4.6489   -3.0347   15.3108 C   0  0  0  0  0  0
   -4.0039   -1.9909   14.5878 O   0  0  0  0  0  0
   -2.6268   -1.8632   14.6694 C   0  0  0  0  0  0
   -1.8019   -2.7477   15.3857 C   0  0  0  0  0  0
   -0.4266   -2.5361   15.4612 C   0  0  0  0  0  0
    0.1642   -1.4471   14.8219 C   0  0  0  0  0  0
    1.5488   -1.2652   15.0033 N   0  0  0  0  0  0
    2.4940   -0.3475   14.5066 C   0  0  0  0  0  0
    2.1447    0.5192   13.5173 N   0  0  0  0  0  0
    3.0125    1.4677   13.0757 C   0  0  0  0  0  0
    2.4645    2.4509   12.0883 C   0  0  0  0  0  0
    1.2037    3.0194   12.3341 C   0  0  0  0  0  0
    0.6087    3.9216   11.4412 C   0  0  0  0  0  0
   -0.7462    4.5177   11.7149 C   0  0  0  0  0  0
   -1.0070    4.8509   12.9776 N   0  0  0  0  0  0
   -1.5678    4.6954   10.8195 O   0  0  0  0  0  0
    1.2915    4.2570   10.2700 C   0  0  0  0  0  0
    2.5530    3.7293   10.0176 C   0  0  0  0  0  0
    3.1501    2.8404   10.9165 C   0  0  0  0  0  0
    4.5129    2.2794   10.5410 C   0  0  0  0  0  0
    4.3068    1.5458   13.5853 C   0  0  0  0  0  0
    4.6655    0.6726   14.5754 N   0  0  0  0  0  0
    5.8162    0.5523   15.3044 C   0  0  0  0  0  0
    5.5496   -0.4358   16.2456 C   0  0  0  0  0  0
    4.3536   -0.9769   16.1251 N   0  0  0  0  0  0
    3.7821   -0.2994   15.0869 C   0  0  0  0  0  0
   -0.6542   -0.5816   14.0851 C   0  0  0  0  0  0
   -2.0444   -0.7745   14.0037 C   0  0  0  0  0  0
   -2.8957    0.0756   13.3144 O   0  0  0  0  0  0
   -2.3452    1.1319   12.5309 C   0  0  0  0  0  0
   -5.7260   -2.9664   15.1591 H   0  0  0  0  0  0
   -4.3290   -4.0185   14.9643 H   0  0  0  0  0  0
   -4.4625   -2.9540   16.3832 H   0  0  0  0  0  0
   -2.2088   -3.5954   15.9167 H   0  0  0  0  0  0
    0.1769   -3.2176   16.0455 H   0  0  0  0  0  0
    1.9470   -1.8923   15.6896 H   0  0  0  0  0  0
    0.6779    2.7384   13.2362 H   0  0  0  0  0  0
   -0.2717    4.8425   13.6688 H   0  0  0  0  0  0
   -1.8989    5.2606   13.2030 H   0  0  0  0  0  0
    0.8566    4.9427    9.5555 H   0  0  0  0  0  0
    3.0650    4.0136    9.1094 H   0  0  0  0  0  0
    4.6300    2.2577    9.4572 H   0  0  0  0  0  0
    5.3107    2.8837   10.9729 H   0  0  0  0  0  0
    4.6327    1.2509   10.8739 H   0  0  0  0  0  0
    5.0306    2.2943   13.3025 H   0  0  0  0  0  0
    6.6804    1.1783   15.1407 H   0  0  0  0  0  0
    6.2300   -0.7495   17.0237 H   0  0  0  0  0  0
   -0.2252    0.2718   13.5961 H   0  0  0  0  0  0
   -3.1486    1.6630   12.0207 H   0  0  0  0  0  0
   -1.8167    1.8564   13.1520 H   0  0  0  0  0  0
   -1.6659    0.7536   11.7651 H   0  0  0  0  0  0
  1  2  1  0  0  0
  1 31  1  0  0  0
  1 32  1  0  0  0
  1 33  1  0  0  0
  2  3  1  0  0  0
  3 28  1  0  0  0
  3  4  2  0  0  0
  4  5  1  0  0  0
  4 34  1  0  0  0
  5  6  2  0  0  0
  5 35  1  0  0  0
  6  7  1  0  0  0
  6 27  1  0  0  0
  7  8  1  0  0  0
  7 36  1  0  0  0
  8 26  1  0  0  0
  8  9  2  0  0  0
  9 10  1  0  0  0
 10 11  1  0  0  0
 10 21  2  0  0  0
 11 19  1  0  0  0
 11 12  2  0  0  0
 12 13  1  0  0  0
 12 37  1  0  0  0
 13 14  1  0  0  0
 13 17  2  0  0  0
 14 15  1  0  0  0
 14 16  2  0  0  0
 15 38  1  0  0  0
 15 39  1  0  0  0
 17 18  1  0  0  0
 17 40  1  0  0  0
 18 19  2  0  0  0
 18 41  1  0  0  0
 19 20  1  0  0  0
 20 42  1  0  0  0
 20 43  1  0  0  0
 20 44  1  0  0  0
 21 22  1  0  0  0
 21 45  1  0  0  0
 22 26  1  0  0  0
 22 23  1  0  0  0
 23 24  2  0  0  0
 23 46  1  0  0  0
 24 25  1  0  0  0
 24 47  1  0  0  0
 25 26  2  0  0  0
 27 28  2  0  0  0
 27 48  1  0  0  0
 28 29  1  0  0  0
 29 30  1  0  0  0
 30 49  1  0  0  0
 30 50  1  0  0  0
 30 51  1  0  0  0
M  END
> <s_m_source_file>
/home/user-home/yujie/0_PBCNetv2/data/FEP/syk/inp_ligprep.csv

> <i_m_source_file_index>
31

> <i_lp_mmshare_version>
51139

> <i_f3d_flags>
0

> <s_epik_input>
W0NIM11PYzFbY0hdW2NIXWMoW2NIXWMxT1tDSDNdKVtOSF1jKGMobjIzKW5bY0hdW2NIXTMpbmMoW2NIXTIpLWM0W2NIXWMoQyg9TylbTkgyXSlbY0hdW2NIXWM0W0NIM10=

> <s_epik_cmdline>
J2VwaWtfcHl0aG9uJywgJy1waHQnLCAnMi4wJywgJy1waCcsICc3LjQnLCAnLXRuJywgJzgnLCAnLW1hJywgJzIwMCcsICctaW1hZScsICc8aW5maWxlLm1hZT4nLCAnLW9tYWUnLCAnPG91dGZpbGUubWFlPic=

> <r_lp_tautomer_probability>
1

> <r_epik_Ionization_Penalty>
  0.0009

> <r_epik_Ionization_Penalty_Charging>
  0.0009

> <r_epik_Ionization_Penalty_Neutral>
  0.0000

> <r_epik_State_Penalty>
  0.0005

> <r_epik_Charging_Adjusted_Penalty>
0.00140069

> <i_epik_Tot_Q>
0

> <i_epik_Tot_abs_Q>
0

> <s_lp_Force_Field>
OPLS3e

> <r_lp_Energy>
44.3228

> <b_lp_Chiralities_Consistent>
1

> <s_lp_Variant>
lig_syk_CHEMBL3265011-1

> <s_i_glide_gridfile>
syk-001-gridgen

> <i_i_glide_lignum>
50

> <i_i_glide_rotatable_bonds>
6

> <r_i_docking_score>
-8.07054249680822

> <r_i_glide_ligand_efficiency>
-0.269018083226941

> <r_i_glide_ligand_efficiency_sa>
-0.835901731944461

> <r_i_glide_ligand_efficiency_ln>
-1.83371519087842

> <r_i_glide_gscore>
-8.07109162380822

> <r_i_glide_lipo>
-2.61485800406988

> <r_i_glide_hbond>
-0.316771807256001

> <r_i_glide_metal>
-0

> <r_i_glide_rewards>
-1.80752719265313

> <r_i_glide_evdw>
-47.213436126709

> <r_i_glide_ecoul>
-8.72704124450684

> <r_i_glide_erotb>
0.361886690042097

> <r_i_glide_esite>
-0.024093316859831

> <r_i_glide_emodel>
-82.5985513885023

> <r_i_glide_energy>
-55.9404773712158

> <r_i_glide_einternal>
2.47984433174133

> <i_i_glide_confnum>
4

> <i_i_glide_posenum>
28

> <r_i_glide_eff_state_penalty>
0.000549127

$$$$
