lig_syk_CHEMBL3265032
                    3D
 Schrodinger Suite 2020-3.
 52 57  0  0  1  0            999 V2000
    5.7807   -0.4530   16.2439 C   0  0  0  0  0  0
    6.0121    0.5055   15.2690 C   0  0  0  0  0  0
    4.8362    0.6020   14.5841 N   0  0  0  0  0  0
    4.4542    1.4254   13.5652 C   0  0  0  0  0  0
    3.1447    1.3357   13.1017 C   0  0  0  0  0  0
    2.6209    2.2685   12.0609 C   0  0  0  0  0  0
    3.4552    2.7093   11.0238 C   0  0  0  0  0  0
    3.0249    3.6080   10.0493 C   0  0  0  0  0  0
    1.7117    4.0875   10.1168 C   0  0  0  0  0  0
    0.9180    4.9956    9.3735 C   0  0  0  0  0  0
   -0.3032    4.9985    9.9984 N   0  0  0  0  0  0
   -0.4064    4.1962   11.0699 N   0  0  0  0  0  0
    0.8396    3.6400   11.1552 C   0  0  0  0  0  0
    1.2993    2.7339   12.1207 C   0  0  0  0  0  0
    2.2753    0.4294   13.6253 N   0  0  0  0  0  0
    2.6577   -0.3970   14.6385 C   0  0  0  0  0  0
    1.7390   -1.2903   15.2182 N   0  0  0  0  0  0
    0.3742   -1.5620   15.0278 C   0  0  0  0  0  0
   -0.4548   -0.8168   14.1827 C   0  0  0  0  0  0
   -1.7982   -1.1466   14.0523 C   0  0  0  0  0  0
   -2.3342   -2.2354   14.7466 C   0  0  0  0  0  0
   -3.6810   -2.5470   14.6568 N   0  0  0  0  0  0
   -4.3280   -2.5753   13.3329 C   0  0  0  0  0  0
   -5.7676   -3.1264   13.3818 C   0  0  0  0  0  0
   -6.5256   -2.3484   14.2991 O   0  0  0  0  0  0
   -6.0087   -2.4642   15.6214 C   0  0  0  0  0  0
   -4.5608   -1.9299   15.6639 C   0  0  0  0  0  0
   -1.5152   -2.9559   15.6181 C   0  0  0  0  0  0
   -0.1683   -2.6252   15.7521 C   0  0  0  0  0  0
    3.9674   -0.3431   15.1617 C   0  0  0  0  0  0
    4.5852   -1.0032   16.1797 N   0  0  0  0  0  0
   -1.0849    5.5615    9.6960 H   0  0  0  0  0  0
    6.4941   -0.7477   16.9960 H   0  0  0  0  0  0
    6.8725    1.1189   15.0452 H   0  0  0  0  0  0
    5.1794    2.1448   13.2169 H   0  0  0  0  0  0
    4.4700    2.3445   10.9632 H   0  0  0  0  0  0
    3.6943    3.9309    9.2659 H   0  0  0  0  0  0
    1.0975    5.6167    8.5093 H   0  0  0  0  0  0
    0.6425    2.4136   12.9156 H   0  0  0  0  0  0
    2.1608   -1.8663   15.9347 H   0  0  0  0  0  0
   -0.0947    0.0278   13.6221 H   0  0  0  0  0  0
   -2.4163   -0.5494   13.3998 H   0  0  0  0  0  0
   -4.3317   -1.5801   12.8879 H   0  0  0  0  0  0
   -3.7332   -3.2043   12.6684 H   0  0  0  0  0  0
   -5.7788   -4.1813   13.6619 H   0  0  0  0  0  0
   -6.2301   -3.0606   12.3974 H   0  0  0  0  0  0
   -6.0524   -3.4988   15.9661 H   0  0  0  0  0  0
   -6.6402   -1.8887   16.2985 H   0  0  0  0  0  0
   -4.1508   -2.1221   16.6577 H   0  0  0  0  0  0
   -4.5597   -0.8467   15.5388 H   0  0  0  0  0  0
   -1.9186   -3.7810   16.1882 H   0  0  0  0  0  0
    0.4482   -3.2002   16.4293 H   0  0  0  0  0  0
  1 31  1  0  0  0
  1  2  2  0  0  0
  1 33  1  0  0  0
  2  3  1  0  0  0
  2 34  1  0  0  0
  3 30  1  0  0  0
  3  4  1  0  0  0
  4  5  2  0  0  0
  4 35  1  0  0  0
  5 15  1  0  0  0
  5  6  1  0  0  0
  6 14  2  0  0  0
  6  7  1  0  0  0
  7 36  1  0  0  0
  7  8  2  0  0  0
  8 37  1  0  0  0
  8  9  1  0  0  0
  9 13  1  0  0  0
  9 10  2  0  0  0
 10 11  1  0  0  0
 10 38  1  0  0  0
 11 32  1  0  0  0
 11 12  1  0  0  0
 12 13  2  0  0  0
 13 14  1  0  0  0
 14 39  1  0  0  0
 15 16  2  0  0  0
 16 17  1  0  0  0
 16 30  1  0  0  0
 17 18  1  0  0  0
 17 40  1  0  0  0
 18 29  1  0  0  0
 18 19  2  0  0  0
 19 20  1  0  0  0
 19 41  1  0  0  0
 20 21  2  0  0  0
 20 42  1  0  0  0
 21 22  1  0  0  0
 21 28  1  0  0  0
 22 27  1  0  0  0
 22 23  1  0  0  0
 23 24  1  0  0  0
 23 43  1  0  0  0
 23 44  1  0  0  0
 24 25  1  0  0  0
 24 45  1  0  0  0
 24 46  1  0  0  0
 25 26  1  0  0  0
 26 27  1  0  0  0
 26 47  1  0  0  0
 26 48  1  0  0  0
 27 49  1  0  0  0
 27 50  1  0  0  0
 28 29  2  0  0  0
 28 51  1  0  0  0
 29 52  1  0  0  0
 30 31  2  0  0  0
M  END
> <s_m_source_file>
/home/user-home/yujie/0_PBCNetv2/data/FEP/syk/inp_ligprep.csv

> <i_m_source_file_index>
22

> <i_lp_mmshare_version>
51139

> <i_f3d_flags>
0

> <s_epik_input>
W2NIXTFuW25IXWMoYzEyKVtjSF1jKFtjSF1bY0hdMiktYyhbY0hdMyluYyhjKG4zNCluW2NIXVtjSF00KVtOSF1jNVtjSF1bY0hdYyhbY0hdW2NIXTUpTjZbQ0gyXVtDSDJdT1tDSDJdW0NIMl02

> <s_epik_cmdline>
J2VwaWtfcHl0aG9uJywgJy1waHQnLCAnMi4wJywgJy1waCcsICc3LjQnLCAnLXRuJywgJzgnLCAnLW1hJywgJzIwMCcsICctaW1hZScsICc8aW5maWxlLm1hZT4nLCAnLW9tYWUnLCAnPG91dGZpbGUubWFlPic=

> <r_lp_tautomer_probability>
0.0196078

> <r_epik_Ionization_Penalty>
  0.0009

> <r_epik_Ionization_Penalty_Charging>
  0.0009

> <r_epik_Ionization_Penalty_Neutral>
  0.0000

> <r_epik_State_Penalty>
  2.4823

> <r_epik_Charging_Adjusted_Penalty>
2.48319

> <i_epik_Tot_Q>
0

> <i_epik_Tot_abs_Q>
0

> <s_lp_Force_Field>
OPLS3e

> <r_lp_Energy>
46.3125

> <b_lp_Chiralities_Consistent>
1

> <s_lp_Variant>
lig_syk_CHEMBL3265032-2

> <s_i_glide_gridfile>
syk-001-gridgen

> <i_i_glide_lignum>
38

> <i_i_glide_rotatable_bonds>
4

> <r_i_docking_score>
-5.37524119143921

> <r_i_glide_ligand_efficiency>
-0.1733948771432

> <r_i_glide_ligand_efficiency_sa>
-0.544699311657935

> <r_i_glide_ligand_efficiency_ln>
-1.21228162002857

> <r_i_glide_gscore>
-7.85758119143921

> <r_i_glide_lipo>
-2.65530784929885

> <r_i_glide_hbond>
-0.274221061731988

> <r_i_glide_metal>
-0

> <r_i_glide_rewards>
-2.05688166753988

> <r_i_glide_evdw>
-47.0460395812988

> <r_i_glide_ecoul>
-6.35581541061401

> <r_i_glide_erotb>
0.465680891425366

> <r_i_glide_esite>
-0.0311772136368139

> <r_i_glide_emodel>
-76.8132700074413

> <r_i_glide_energy>
-53.4018549919128

> <r_i_glide_einternal>
3.63903093338013

> <i_i_glide_confnum>
109

> <i_i_glide_posenum>
352

> <r_i_glide_eff_state_penalty>
2.48234

$$$$
