lig_syk_CHEMBL3265036
                    3D
 Schrodinger Suite 2020-3.
 55 60  0  0  1  0            999 V2000
    5.5756   -0.4542   16.2778 C   0  0  0  0  0  0
    5.8337    0.5042   15.3045 C   0  0  0  0  0  0
    4.6802    0.5954   14.5778 N   0  0  0  0  0  0
    4.3156    1.4187   13.5514 C   0  0  0  0  0  0
    3.0107    1.3313   13.0697 C   0  0  0  0  0  0
    2.4939    2.2804   12.0409 C   0  0  0  0  0  0
    3.3332    2.7366   11.0148 C   0  0  0  0  0  0
    2.9037    3.6432   10.0474 C   0  0  0  0  0  0
    1.5873    4.1164   10.1129 C   0  0  0  0  0  0
    0.7918    5.0268    9.3739 C   0  0  0  0  0  0
   -0.4317    5.0216    9.9956 N   0  0  0  0  0  0
   -0.5353    4.2107   11.0605 N   0  0  0  0  0  0
    0.7123    3.6570   11.1443 C   0  0  0  0  0  0
    1.1713    2.7435   12.1030 C   0  0  0  0  0  0
    2.1350    0.4148   13.5671 N   0  0  0  0  0  0
    2.5060   -0.4150   14.5813 C   0  0  0  0  0  0
    1.5926   -1.3301   15.1333 N   0  0  0  0  0  0
    0.2192   -1.5741   14.9723 C   0  0  0  0  0  0
   -0.6329   -0.7474   14.2330 C   0  0  0  0  0  0
   -1.9950   -1.0230   14.1743 C   0  0  0  0  0  0
   -2.5261   -2.1374   14.8250 C   0  0  0  0  0  0
   -3.9145   -2.3235   14.7927 N   0  0  0  0  0  0
   -4.5766   -1.6895   15.9397 C   0  0  0  0  0  0
   -5.3532   -2.5437   16.9630 C   0  0  0  0  0  0
   -6.6615   -3.1691   16.4393 C   0  0  0  0  0  0
   -6.5030   -4.2281   15.5025 O   0  0  0  0  0  0
   -5.8589   -3.9048   14.2769 C   0  0  0  0  0  0
   -4.3442   -3.6812   14.4359 C   0  0  0  0  0  0
   -1.6725   -2.9603   15.5706 C   0  0  0  0  0  0
   -0.3106   -2.6799   15.6393 C   0  0  0  0  0  0
    3.8003   -0.3477   15.1367 C   0  0  0  0  0  0
    4.3857   -1.0065   16.1751 N   0  0  0  0  0  0
   -1.2129    5.5883    9.6977 H   0  0  0  0  0  0
    6.2542   -0.7472   17.0638 H   0  0  0  0  0  0
    6.6958    1.1254   15.1134 H   0  0  0  0  0  0
    5.0439    2.1437   13.2209 H   0  0  0  0  0  0
    4.3500    2.3770   10.9573 H   0  0  0  0  0  0
    3.5765    3.9780    9.2717 H   0  0  0  0  0  0
    0.9713    5.6553    8.5146 H   0  0  0  0  0  0
    0.5122    2.4121   12.8914 H   0  0  0  0  0  0
    2.0197   -1.9184   15.8368 H   0  0  0  0  0  0
   -0.2740    0.1282   13.7202 H   0  0  0  0  0  0
   -2.6368   -0.3645   13.6104 H   0  0  0  0  0  0
   -4.0123   -0.8699   16.3877 H   0  0  0  0  0  0
   -5.3714   -1.1489   15.4285 H   0  0  0  0  0  0
   -4.7089   -3.3433   17.3321 H   0  0  0  0  0  0
   -5.5832   -1.9206   17.8278 H   0  0  0  0  0  0
   -7.2052   -3.5899   17.2863 H   0  0  0  0  0  0
   -7.3199   -2.4037   16.0252 H   0  0  0  0  0  0
   -6.3475   -3.0605   13.7870 H   0  0  0  0  0  0
   -6.0099   -4.7613   13.6200 H   0  0  0  0  0  0
   -3.8602   -3.9448   13.4936 H   0  0  0  0  0  0
   -3.9600   -4.3969   15.1646 H   0  0  0  0  0  0
   -2.0584   -3.8004   16.1294 H   0  0  0  0  0  0
    0.3260   -3.3172   16.2381 H   0  0  0  0  0  0
  1 32  1  0  0  0
  1  2  2  0  0  0
  1 34  1  0  0  0
  2  3  1  0  0  0
  2 35  1  0  0  0
  3 31  1  0  0  0
  3  4  1  0  0  0
  4  5  2  0  0  0
  4 36  1  0  0  0
  5 15  1  0  0  0
  5  6  1  0  0  0
  6 14  2  0  0  0
  6  7  1  0  0  0
  7 37  1  0  0  0
  7  8  2  0  0  0
  8 38  1  0  0  0
  8  9  1  0  0  0
  9 13  1  0  0  0
  9 10  2  0  0  0
 10 11  1  0  0  0
 10 39  1  0  0  0
 11 33  1  0  0  0
 11 12  1  0  0  0
 12 13  2  0  0  0
 13 14  1  0  0  0
 14 40  1  0  0  0
 15 16  2  0  0  0
 16 17  1  0  0  0
 16 31  1  0  0  0
 17 18  1  0  0  0
 17 41  1  0  0  0
 18 30  1  0  0  0
 18 19  2  0  0  0
 19 20  1  0  0  0
 19 42  1  0  0  0
 20 21  2  0  0  0
 20 43  1  0  0  0
 21 22  1  0  0  0
 21 29  1  0  0  0
 22 28  1  0  0  0
 22 23  1  0  0  0
 23 24  1  0  0  0
 23 44  1  0  0  0
 23 45  1  0  0  0
 24 25  1  0  0  0
 24 46  1  0  0  0
 24 47  1  0  0  0
 25 26  1  0  0  0
 25 48  1  0  0  0
 25 49  1  0  0  0
 26 27  1  0  0  0
 27 28  1  0  0  0
 27 50  1  0  0  0
 27 51  1  0  0  0
 28 52  1  0  0  0
 28 53  1  0  0  0
 29 30  2  0  0  0
 29 54  1  0  0  0
 30 55  1  0  0  0
 31 32  2  0  0  0
M  END
> <s_m_source_file>
/home/user-home/yujie/0_PBCNetv2/data/FEP/syk/inp_ligprep.csv

> <i_m_source_file_index>
4

> <i_lp_mmshare_version>
51139

> <i_f3d_flags>
0

> <s_epik_input>
W2NIXTFuW25IXWMoYzEyKVtjSF1jKFtjSF1bY0hdMiktYyhbY0hdMyluYyhjKG4zNCluW2NIXVtjSF00KVtOSF1jNVtjSF1bY0hdYyhbY0hdW2NIXTUpTjZbQ0gyXVtDSDJdW0NIMl1PW0NIMl1bQ0gyXTY=

> <s_epik_cmdline>
J2VwaWtfcHl0aG9uJywgJy1waHQnLCAnMi4wJywgJy1waCcsICc3LjQnLCAnLXRuJywgJzgnLCAnLW1hJywgJzIwMCcsICctaW1hZScsICc8aW5maWxlLm1hZT4nLCAnLW9tYWUnLCAnPG91dGZpbGUubWFlPic=

> <r_lp_tautomer_probability>
0.0196078

> <r_epik_Ionization_Penalty>
  0.0143

> <r_epik_Ionization_Penalty_Charging>
  0.0009

> <r_epik_Ionization_Penalty_Neutral>
  0.0134

> <r_epik_State_Penalty>
  2.4926

> <r_epik_Charging_Adjusted_Penalty>
2.49349

> <i_epik_Tot_Q>
0

> <i_epik_Tot_abs_Q>
0

> <s_lp_Force_Field>
OPLS3e

> <r_lp_Energy>
56.0304

> <b_lp_Chiralities_Consistent>
1

> <s_lp_Variant>
lig_syk_CHEMBL3265036-3

> <s_i_glide_gridfile>
syk-001-gridgen

> <i_i_glide_lignum>
8

> <i_i_glide_rotatable_bonds>
4

> <r_i_docking_score>
-4.82908976465104

> <r_i_glide_ligand_efficiency>
-0.150909055145345

> <r_i_glide_ligand_efficiency_sa>
-0.47910638522501

> <r_i_glide_ligand_efficiency_ln>
-1.0813648343207

> <r_i_glide_gscore>
-7.32172976465104

> <r_i_glide_lipo>
-2.58099651922138

> <r_i_glide_hbond>
-0.20177237270665

> <r_i_glide_metal>
-0

> <r_i_glide_rewards>
-1.93242748965686

> <r_i_glide_evdw>
-48.5954666137695

> <r_i_glide_ecoul>
-3.83259463310242

> <r_i_glide_erotb>
0.438308777680472

> <r_i_glide_esite>
-0.0401796350927702

> <r_i_glide_emodel>
-73.9431659359857

> <r_i_glide_energy>
-52.4280612468719

> <r_i_glide_einternal>
5.90965747833252

> <i_i_glide_confnum>
87

> <i_i_glide_posenum>
44

> <r_i_glide_eff_state_penalty>
2.49264

$$$$
