lig_syk_CHEMBL3265012
                    3D
 Schrodinger Suite 2020-3.
 48 51  0  0  1  0            999 V2000
   -4.6591   -3.0333   15.7971 C   0  0  0  0  0  0
   -4.0386   -2.0831   14.9354 O   0  0  0  0  0  0
   -2.6598   -1.9523   14.9568 C   0  0  0  0  0  0
   -1.8141   -2.7493   15.7465 C   0  0  0  0  0  0
   -0.4385   -2.5326   15.7566 C   0  0  0  0  0  0
    0.1311   -1.5201   14.9858 C   0  0  0  0  0  0
    1.5156   -1.3123   15.1293 N   0  0  0  0  0  0
    2.4476   -0.3895   14.6159 C   0  0  0  0  0  0
    2.0914    0.4831   13.6338 N   0  0  0  0  0  0
    2.9907    1.3885   13.1634 C   0  0  0  0  0  0
    2.5101    2.3742   12.1598 C   0  0  0  0  0  0
    1.2266    2.9288   12.2400 C   0  0  0  0  0  0
    0.8135    3.9065   11.3367 C   0  0  0  0  0  0
    1.6781    4.3571   10.3260 C   0  0  0  0  0  0
    1.2476    5.4425    9.3751 C   0  0  0  0  0  0
   -0.0235    5.4212    8.9799 N   0  0  0  0  0  0
    2.0254    6.3011    8.9720 O   0  0  0  0  0  0
    2.9548    3.7800   10.2228 C   0  0  0  0  0  0
    3.8285    4.1509    9.2564 F   0  0  0  0  0  0
    3.3564    2.8046   11.1315 C   0  0  0  0  0  0
    4.2955    1.4419   13.6492 C   0  0  0  0  0  0
    4.6444    0.5817   14.6487 N   0  0  0  0  0  0
    5.7986    0.4513   15.3692 C   0  0  0  0  0  0
    5.5331   -0.5570   16.2887 C   0  0  0  0  0  0
    4.3291   -1.0823   16.1752 N   0  0  0  0  0  0
    3.7456   -0.3629   15.1743 C   0  0  0  0  0  0
   -0.7055   -0.7472   14.1729 C   0  0  0  0  0  0
   -2.0975   -0.9515   14.1497 C   0  0  0  0  0  0
   -2.9697   -0.1951   13.3799 O   0  0  0  0  0  0
   -2.4391    0.7607   12.4640 C   0  0  0  0  0  0
   -5.7413   -2.9793   15.6720 H   0  0  0  0  0  0
   -4.3500   -4.0518   15.5576 H   0  0  0  0  0  0
   -4.4392   -2.8265   16.8467 H   0  0  0  0  0  0
   -2.2047   -3.5266   16.3884 H   0  0  0  0  0  0
    0.1797   -3.1388   16.4047 H   0  0  0  0  0  0
    1.9279   -1.9147   15.8286 H   0  0  0  0  0  0
    0.5545    2.6241   13.0293 H   0  0  0  0  0  0
   -0.1726    4.3320   11.4562 H   0  0  0  0  0  0
   -0.6425    4.6880    9.2833 H   0  0  0  0  0  0
   -0.3502    6.1408    8.3547 H   0  0  0  0  0  0
    4.3469    2.3845   11.0352 H   0  0  0  0  0  0
    5.0394    2.1603   13.3388 H   0  0  0  0  0  0
    6.6710    1.0634   15.2022 H   0  0  0  0  0  0
    6.2287   -0.9043   17.0375 H   0  0  0  0  0  0
   -0.2800    0.0350   13.5715 H   0  0  0  0  0  0
   -3.2534    1.2109   11.8951 H   0  0  0  0  0  0
   -1.9171    1.5659   12.9849 H   0  0  0  0  0  0
   -1.7598    0.2952   11.7469 H   0  0  0  0  0  0
  1  2  1  0  0  0
  1 31  1  0  0  0
  1 32  1  0  0  0
  1 33  1  0  0  0
  2  3  1  0  0  0
  3 28  1  0  0  0
  3  4  2  0  0  0
  4  5  1  0  0  0
  4 34  1  0  0  0
  5  6  2  0  0  0
  5 35  1  0  0  0
  6  7  1  0  0  0
  6 27  1  0  0  0
  7  8  1  0  0  0
  7 36  1  0  0  0
  8 26  1  0  0  0
  8  9  2  0  0  0
  9 10  1  0  0  0
 10 11  1  0  0  0
 10 21  2  0  0  0
 11 20  1  0  0  0
 11 12  2  0  0  0
 12 13  1  0  0  0
 12 37  1  0  0  0
 13 14  2  0  0  0
 13 38  1  0  0  0
 14 15  1  0  0  0
 14 18  1  0  0  0
 15 16  1  0  0  0
 15 17  2  0  0  0
 16 39  1  0  0  0
 16 40  1  0  0  0
 18 19  1  0  0  0
 18 20  2  0  0  0
 20 41  1  0  0  0
 21 22  1  0  0  0
 21 42  1  0  0  0
 22 26  1  0  0  0
 22 23  1  0  0  0
 23 24  2  0  0  0
 23 43  1  0  0  0
 24 25  1  0  0  0
 24 44  1  0  0  0
 25 26  2  0  0  0
 27 28  2  0  0  0
 27 45  1  0  0  0
 28 29  1  0  0  0
 29 30  1  0  0  0
 30 46  1  0  0  0
 30 47  1  0  0  0
 30 48  1  0  0  0
M  END
> <s_m_source_file>
/home/user-home/yujie/0_PBCNetv2/data/FEP/syk/inp_ligprep.csv

> <i_m_source_file_index>
23

> <i_lp_mmshare_version>
51139

> <i_f3d_flags>
0

> <s_epik_input>
W0NIM11PYzFbY0hdW2NIXWMoW2NIXWMxT1tDSDNdKVtOSF1jKGMobjIzKW5bY0hdW2NIXTMpbmMoW2NIXTIpLWM0W2NIXVtjSF1jKEMoPU8pW05IMl0pYyhGKVtjSF00

> <s_epik_cmdline>
J2VwaWtfcHl0aG9uJywgJy1waHQnLCAnMi4wJywgJy1waCcsICc3LjQnLCAnLXRuJywgJzgnLCAnLW1hJywgJzIwMCcsICctaW1hZScsICc8aW5maWxlLm1hZT4nLCAnLW9tYWUnLCAnPG91dGZpbGUubWFlPic=

> <r_lp_tautomer_probability>
1

> <r_epik_Ionization_Penalty>
  0.0009

> <r_epik_Ionization_Penalty_Charging>
  0.0009

> <r_epik_Ionization_Penalty_Neutral>
  0.0000

> <r_epik_State_Penalty>
  0.0005

> <r_epik_Charging_Adjusted_Penalty>
0.00140069

> <i_epik_Tot_Q>
0

> <i_epik_Tot_abs_Q>
0

> <s_lp_Force_Field>
OPLS3e

> <r_lp_Energy>
39.9609

> <b_lp_Chiralities_Consistent>
1

> <s_lp_Variant>
lig_syk_CHEMBL3265012-1

> <s_i_glide_gridfile>
syk-001-gridgen

> <i_i_glide_lignum>
39

> <i_i_glide_rotatable_bonds>
6

> <r_i_docking_score>
-8.08144772101446

> <r_i_glide_ligand_efficiency>
-0.269381590700482

> <r_i_glide_ligand_efficiency_sa>
-0.837031234181126

> <r_i_glide_ligand_efficiency_ln>
-1.83619297664001

> <r_i_glide_gscore>
-8.08199684801446

> <r_i_glide_lipo>
-2.3901021297618

> <r_i_glide_hbond>
-0.396366151087989

> <r_i_glide_metal>
-0

> <r_i_glide_rewards>
-2.22649723369534

> <r_i_glide_evdw>
-45.8230934143066

> <r_i_glide_ecoul>
-7.55628442764282

> <r_i_glide_erotb>
0.355566001392427

> <r_i_glide_esite>
0

> <r_i_glide_emodel>
-80.2628893513263

> <r_i_glide_energy>
-53.3793778419495

> <r_i_glide_einternal>
0.863793075084686

> <i_i_glide_confnum>
22

> <i_i_glide_posenum>
273

> <r_i_glide_eff_state_penalty>
0.000549127

$$$$
