lig_syk_CHEMBL3265014
                    3D
 Schrodinger Suite 2020-3.
 52 55  0  0  1  0            999 V2000
   -4.6322   -3.0097   15.8557 C   0  0  0  0  0  0
   -4.0070   -2.0963   14.9588 O   0  0  0  0  0  0
   -2.6276   -1.9721   14.9750 C   0  0  0  0  0  0
   -1.7829   -2.7708   15.7646 C   0  0  0  0  0  0
   -0.4065   -2.5575   15.7753 C   0  0  0  0  0  0
    0.1656   -1.5455   15.0059 C   0  0  0  0  0  0
    1.5511   -1.3373   15.1532 N   0  0  0  0  0  0
    2.4743   -0.4226   14.6113 C   0  0  0  0  0  0
    2.0877    0.4155   13.6162 N   0  0  0  0  0  0
    2.9382    1.3480   13.1160 C   0  0  0  0  0  0
    2.3580    2.3120   12.1377 C   0  0  0  0  0  0
    3.1311    2.8533   11.1047 C   0  0  0  0  0  0
    2.5814    3.7591   10.1988 C   0  0  0  0  0  0
    1.2408    4.1599   10.3085 C   0  0  0  0  0  0
    0.6523    5.0960    9.2870 C   0  0  0  0  0  0
    1.3874    6.1630    8.9756 N   0  0  0  0  0  0
   -0.4448    4.8950    8.7731 O   0  0  0  0  0  0
    0.4633    3.6457   11.3641 C   0  0  0  0  0  0
   -0.8624    3.9583   11.5542 O   0  0  0  0  0  0
   -1.0935    5.2354   12.1397 C   0  0  0  0  0  0
    1.0202    2.7156   12.2390 C   0  0  0  0  0  0
    4.2551    1.4359   13.5637 C   0  0  0  0  0  0
    4.6471    0.6031   14.5751 N   0  0  0  0  0  0
    5.8226    0.5053   15.2680 C   0  0  0  0  0  0
    5.5848   -0.4545   16.2456 C   0  0  0  0  0  0
    4.3895   -1.0037   16.1753 N   0  0  0  0  0  0
    3.7795   -0.3477   15.1482 C   0  0  0  0  0  0
   -0.6713   -0.7759   14.1856 C   0  0  0  0  0  0
   -2.0633   -0.9765   14.1637 C   0  0  0  0  0  0
   -2.9325   -0.2214   13.3896 O   0  0  0  0  0  0
   -2.4055    0.7497   12.4879 C   0  0  0  0  0  0
   -5.7143   -2.9447   15.7412 H   0  0  0  0  0  0
   -4.3405   -4.0398   15.6458 H   0  0  0  0  0  0
   -4.3972   -2.7746   16.8955 H   0  0  0  0  0  0
   -2.1742   -3.5489   16.4030 H   0  0  0  0  0  0
    0.2107   -3.1672   16.4219 H   0  0  0  0  0  0
    1.9666   -1.9273   15.8619 H   0  0  0  0  0  0
    4.1637    2.5585   10.9877 H   0  0  0  0  0  0
    3.2055    4.1301    9.3975 H   0  0  0  0  0  0
    2.2291    6.3693    9.4916 H   0  0  0  0  0  0
    1.0378    6.8199    8.2960 H   0  0  0  0  0  0
   -2.1640    5.3727   12.2898 H   0  0  0  0  0  0
   -0.6120    5.3171   13.1162 H   0  0  0  0  0  0
   -0.7422    6.0557   11.5138 H   0  0  0  0  0  0
    0.4013    2.3271   13.0336 H   0  0  0  0  0  0
    4.9698    2.1704   13.2254 H   0  0  0  0  0  0
    6.6817    1.1249   15.0570 H   0  0  0  0  0  0
    6.2858   -0.7477   17.0117 H   0  0  0  0  0  0
   -0.2564    0.0058   13.5793 H   0  0  0  0  0  0
   -3.2200    1.1905   11.9136 H   0  0  0  0  0  0
   -1.9060    1.5591   13.0225 H   0  0  0  0  0  0
   -1.7092    0.3046   11.7745 H   0  0  0  0  0  0
  1  2  1  0  0  0
  1 32  1  0  0  0
  1 33  1  0  0  0
  1 34  1  0  0  0
  2  3  1  0  0  0
  3 29  1  0  0  0
  3  4  2  0  0  0
  4  5  1  0  0  0
  4 35  1  0  0  0
  5  6  2  0  0  0
  5 36  1  0  0  0
  6  7  1  0  0  0
  6 28  1  0  0  0
  7  8  1  0  0  0
  7 37  1  0  0  0
  8 27  1  0  0  0
  8  9  2  0  0  0
  9 10  1  0  0  0
 10 11  1  0  0  0
 10 22  2  0  0  0
 11 21  1  0  0  0
 11 12  2  0  0  0
 12 13  1  0  0  0
 12 38  1  0  0  0
 13 14  2  0  0  0
 13 39  1  0  0  0
 14 15  1  0  0  0
 14 18  1  0  0  0
 15 16  1  0  0  0
 15 17  2  0  0  0
 16 40  1  0  0  0
 16 41  1  0  0  0
 18 19  1  0  0  0
 18 21  2  0  0  0
 19 20  1  0  0  0
 20 42  1  0  0  0
 20 43  1  0  0  0
 20 44  1  0  0  0
 21 45  1  0  0  0
 22 23  1  0  0  0
 22 46  1  0  0  0
 23 27  1  0  0  0
 23 24  1  0  0  0
 24 25  2  0  0  0
 24 47  1  0  0  0
 25 26  1  0  0  0
 25 48  1  0  0  0
 26 27  2  0  0  0
 28 29  2  0  0  0
 28 49  1  0  0  0
 29 30  1  0  0  0
 30 31  1  0  0  0
 31 50  1  0  0  0
 31 51  1  0  0  0
 31 52  1  0  0  0
M  END
> <s_m_source_file>
/home/user-home/yujie/0_PBCNetv2/data/FEP/syk/inp_ligprep.csv

> <i_m_source_file_index>
28

> <i_lp_mmshare_version>
51139

> <i_f3d_flags>
0

> <s_epik_input>
W0NIM11PYzFbY0hdW2NIXWMoW2NIXWMxT1tDSDNdKVtOSF1jKGMobjIzKW5bY0hdW2NIXTMpbmMoW2NIXTIpLWM0W2NIXVtjSF1jKEMoPU8pW05IMl0pYyhbY0hdNClPW0NIM10=

> <s_epik_cmdline>
J2VwaWtfcHl0aG9uJywgJy1waHQnLCAnMi4wJywgJy1waCcsICc3LjQnLCAnLXRuJywgJzgnLCAnLW1hJywgJzIwMCcsICctaW1hZScsICc8aW5maWxlLm1hZT4nLCAnLW9tYWUnLCAnPG91dGZpbGUubWFlPic=

> <r_lp_tautomer_probability>
1

> <r_epik_Ionization_Penalty>
  0.0009

> <r_epik_Ionization_Penalty_Charging>
  0.0009

> <r_epik_Ionization_Penalty_Neutral>
  0.0000

> <r_epik_State_Penalty>
  0.0005

> <r_epik_Charging_Adjusted_Penalty>
0.00140069

> <i_epik_Tot_Q>
0

> <i_epik_Tot_abs_Q>
0

> <s_lp_Force_Field>
OPLS3e

> <r_lp_Energy>
46.0729

> <b_lp_Chiralities_Consistent>
1

> <s_lp_Variant>
lig_syk_CHEMBL3265014-1

> <s_i_glide_gridfile>
syk-001-gridgen

> <i_i_glide_lignum>
45

> <i_i_glide_rotatable_bonds>
7

> <r_i_docking_score>
-8.19350929330601

> <r_i_glide_ligand_efficiency>
-0.264306751396968

> <r_i_glide_ligand_efficiency_sa>
-0.830288114184457

> <r_i_glide_ligand_efficiency_ln>
-1.84788744654427

> <r_i_glide_gscore>
-8.19405842030601

> <r_i_glide_lipo>
-2.39766171431223

> <r_i_glide_hbond>
-0.35486209008244

> <r_i_glide_metal>
-0

> <r_i_glide_rewards>
-2.00369396408677

> <r_i_glide_evdw>
-47.164680480957

> <r_i_glide_ecoul>
-9.44645023345947

> <r_i_glide_erotb>
0.337360907242203

> <r_i_glide_esite>
0

> <r_i_glide_emodel>
-81.3886623835831

> <r_i_glide_energy>
-56.6111307144165

> <r_i_glide_einternal>
7.29136323928833

> <i_i_glide_confnum>
4

> <i_i_glide_posenum>
338

> <r_i_glide_eff_state_penalty>
0.000549127

$$$$
