lig_syk_CHEMBL3265030_n
                    3D
 Schrodinger Suite 2020-3.
 53 58  0  0  1  0            999 V2000
   -4.9430   -4.7215   17.5598 C   0  0  0  0  0  0
   -5.2252   -3.7898   16.3677 C   0  0  1  0  0  0
   -6.6160   -3.7237   16.1373 O   0  0  0  0  0  0
   -4.5086   -2.4338   16.4618 C   0  0  0  0  0  0
   -3.8587   -2.6570   15.0884 N   0  3  1  0  0  0
   -2.3957   -2.4112   14.9988 C   0  0  0  0  0  0
   -1.9515   -1.3751   14.1788 C   0  0  0  0  0  0
   -0.5951   -1.0518   14.1810 C   0  0  0  0  0  0
    0.2988   -1.7562   15.0009 C   0  0  0  0  0  0
    1.6608   -1.4443   15.1441 N   0  0  0  0  0  0
    2.5187   -0.4659   14.6148 C   0  0  0  0  0  0
    2.0877    0.3690   13.6313 N   0  0  0  0  0  0
    2.9105    1.3294   13.1295 C   0  0  0  0  0  0
    2.3248    2.2510   12.1115 C   0  0  0  0  0  0
    3.1277    2.7813   11.0918 C   0  0  0  0  0  0
    2.6255    3.6387   10.1134 C   0  0  0  0  0  0
    1.2683    3.9769   10.1551 C   0  0  0  0  0  0
    0.3937    4.7826    9.3851 C   0  0  0  0  0  0
   -0.8301    4.6671    9.9959 N   0  0  0  0  0  0
   -0.8631    3.8782   11.0825 N   0  0  0  0  0  0
    0.4318    3.4516   11.1875 C   0  0  0  0  0  0
    0.9662    2.6006   12.1647 C   0  0  0  0  0  0
    4.2239    1.4622   13.5814 C   0  0  0  0  0  0
    4.6497    0.6353   14.5825 N   0  0  0  0  0  0
    5.8309    0.5652   15.2693 C   0  0  0  0  0  0
    5.6379   -0.4262   16.2275 C   0  0  0  0  0  0
    4.4520   -0.9941   16.1735 N   0  0  0  0  0  0
    3.8187   -0.3479   15.1517 C   0  0  0  0  0  0
   -0.1695   -2.8165   15.7765 C   0  0  0  0  0  0
   -1.5158   -3.1502   15.7863 C   0  0  0  0  0  0
   -4.3740   -4.1043   15.1233 C   0  0  0  0  0  0
   -1.6622    5.1414    9.6755 H   0  0  0  0  0  0
   -3.8763   -4.8052   17.7723 H   0  0  0  0  0  0
   -5.3134   -5.7314   17.3707 H   0  0  0  0  0  0
   -5.4219   -4.3604   18.4703 H   0  0  0  0  0  0
   -7.0624   -3.5494   16.9720 H   0  0  0  0  0  0
   -5.1307   -1.5389   16.4216 H   0  0  0  0  0  0
   -3.7326   -2.3511   17.2258 H   0  0  0  0  0  0
   -2.6337   -0.8042   13.5650 H   0  0  0  0  0  0
   -0.2676   -0.2344   13.5618 H   0  0  0  0  0  0
    2.1304   -2.0304   15.8224 H   0  0  0  0  0  0
    4.1732    2.5148   11.0409 H   0  0  0  0  0  0
    3.2712    4.0275    9.3396 H   0  0  0  0  0  0
    0.5178    5.4020    8.5094 H   0  0  0  0  0  0
    0.3312    2.2179   12.9506 H   0  0  0  0  0  0
    4.9147    2.2191   13.2410 H   0  0  0  0  0  0
    6.6727    1.2080   15.0560 H   0  0  0  0  0  0
    6.3618   -0.7383   16.9655 H   0  0  0  0  0  0
    0.5056   -3.3654   16.4204 H   0  0  0  0  0  0
   -1.8573   -3.9407   16.4397 H   0  0  0  0  0  0
   -3.5448   -4.7994   15.2570 H   0  0  0  0  0  0
   -4.9167   -4.2992   14.1980 H   0  0  0  0  0  0
   -4.3373   -2.1317   14.3716 H   0  0  0  0  0  0
  1  2  1  0  0  0
  1 33  1  0  0  0
  1 34  1  0  0  0
  1 35  1  0  0  0
  2 31  1  0  0  0
  2  3  1  0  0  0
  2  4  1  0  0  0
  3 36  1  0  0  0
  4  5  1  0  0  0
  4 37  1  0  0  0
  4 38  1  0  0  0
  5  6  1  0  0  0
  5 31  1  0  0  0
  5 53  1  0  0  0
  6 30  1  0  0  0
  6  7  2  0  0  0
  7  8  1  0  0  0
  7 39  1  0  0  0
  8  9  2  0  0  0
  8 40  1  0  0  0
  9 10  1  0  0  0
  9 29  1  0  0  0
 10 11  1  0  0  0
 10 41  1  0  0  0
 11 28  1  0  0  0
 11 12  2  0  0  0
 12 13  1  0  0  0
 13 23  2  0  0  0
 13 14  1  0  0  0
 14 22  2  0  0  0
 14 15  1  0  0  0
 15 42  1  0  0  0
 15 16  2  0  0  0
 16 43  1  0  0  0
 16 17  1  0  0  0
 17 21  1  0  0  0
 17 18  2  0  0  0
 18 19  1  0  0  0
 18 44  1  0  0  0
 19 32  1  0  0  0
 19 20  1  0  0  0
 20 21  2  0  0  0
 21 22  1  0  0  0
 22 45  1  0  0  0
 23 24  1  0  0  0
 23 46  1  0  0  0
 24 28  1  0  0  0
 24 25  1  0  0  0
 25 26  2  0  0  0
 25 47  1  0  0  0
 26 27  1  0  0  0
 26 48  1  0  0  0
 27 28  2  0  0  0
 29 30  2  0  0  0
 29 49  1  0  0  0
 30 50  1  0  0  0
 31 51  1  0  0  0
 31 52  1  0  0  0
M  CHG  1   5   1
M  END
> <s_m_source_file>
/home/user-home/yujie/0_PBCNetv2/data/FEP/syk/inp_ligprep.csv

> <i_m_source_file_index>
1

> <i_lp_mmshare_version>
51139

> <i_f3d_flags>
0

> <s_epik_input>
W0NIM11DMShbT0hdKVtDSDJdTihbQ0gyXTEpYzJbY0hdW2NIXWMoW2NIXVtjSF0yKVtOSF1jKGMobjM0KW5bY0hdW2NIXTQpbmMoW2NIXTMpLWMoW2NIXVtjSF01KVtjSF1jKGM1NilbbkhdbltjSF02

> <s_epik_cmdline>
J2VwaWtfcHl0aG9uJywgJy1waHQnLCAnMi4wJywgJy1waCcsICc3LjQnLCAnLXRuJywgJzgnLCAnLW1hJywgJzIwMCcsICctaW1hZScsICc8aW5maWxlLm1hZT4nLCAnLW9tYWUnLCAnPG91dGZpbGUubWFlPic=

> <r_lp_tautomer_probability>
0.0196078

> <r_epik_Ionization_Penalty>
  0.0068

> <r_epik_Ionization_Penalty_Charging>
  0.0068

> <r_epik_Ionization_Penalty_Neutral>
  0.0000

> <r_epik_State_Penalty>
  2.4823

> <r_epik_Charging_Adjusted_Penalty>
2.48916

> <i_epik_Tot_Q>
1

> <i_epik_Tot_abs_Q>
1

> <s_lp_Force_Field>
OPLS3e

> <r_lp_Energy>
54.4207

> <b_lp_Chiralities_Consistent>
1

> <s_lp_Variant>
lig_syk_CHEMBL3265030_n-2

> <s_i_glide_gridfile>
syk-001-gridgen

> <i_i_glide_lignum>
2

> <i_i_glide_rotatable_bonds>
5

> <r_i_docking_score>
-4.9537318200569

> <r_i_glide_ligand_efficiency>
-0.159797800646997

> <r_i_glide_ligand_efficiency_sa>
-0.501985718672568

> <r_i_glide_ligand_efficiency_ln>
-1.11721833907099

> <r_i_glide_gscore>
-7.4360718200569

> <r_i_glide_lipo>
-2.58420578922265

> <r_i_glide_hbond>
-0.191623820166975

> <r_i_glide_metal>
-0

> <r_i_glide_rewards>
-2.01345451381186

> <r_i_glide_evdw>
-45.768627166748

> <r_i_glide_ecoul>
-5.27101802825928

> <r_i_glide_erotb>
0.463629232680287

> <r_i_glide_esite>
-0.0313328669594143

> <r_i_glide_emodel>
-75.3300610394429

> <r_i_glide_energy>
-51.0396451950073

> <r_i_glide_einternal>
3.28409790992737

> <i_i_glide_confnum>
86

> <i_i_glide_posenum>
240

> <r_i_glide_eff_state_penalty>
2.48234

$$$$
