lig_syk_CHEMBL3264996
                    3D
 Schrodinger Suite 2020-3.
 64 68  0  0  1  0            999 V2000
   -8.6285    5.6493   12.4126 C   0  0  0  0  0  0
   -7.2505    5.4104   12.1584 O   0  0  0  0  0  0
   -6.2886    6.0510   12.8726 C   0  0  0  0  0  0
   -6.5345    6.8523   13.7752 O   0  0  0  0  0  0
   -4.9021    5.6122   12.5150 C   0  0  0  0  0  0
   -3.8410    5.9156   13.3788 C   0  0  0  0  0  0
   -2.5443    5.5153   13.0716 C   0  0  0  0  0  0
   -2.2831    4.8159   11.8936 C   0  0  0  0  0  0
   -0.9499    4.4255   11.6816 N   0  0  0  0  0  0
   -0.3573    4.0139   10.5386 C   0  0  0  0  0  0
   -0.8901    3.9913    9.4277 O   0  0  0  0  0  0
    1.0723    3.5700   10.6920 C   0  0  0  0  0  0
    2.0194    3.9095    9.7181 C   0  0  0  0  0  0
    3.3358    3.4687    9.8331 C   0  0  0  0  0  0
    3.7091    2.6622   10.9057 C   0  0  0  0  0  0
    2.7799    2.2847   11.8846 C   0  0  0  0  0  0
    3.1762    1.3708   12.9952 C   0  0  0  0  0  0
    4.4458    1.4235   13.5588 C   0  0  0  0  0  0
    4.7259    0.5873   14.5984 N   0  0  0  0  0  0
    5.8367    0.4726   15.3752 C   0  0  0  0  0  0
    5.5299   -0.4887   16.3265 C   0  0  0  0  0  0
    4.3271   -1.0130   16.1753 N   0  0  0  0  0  0
    3.7998   -0.3401   15.1078 C   0  0  0  0  0  0
    2.5320   -0.3551   14.4839 C   0  0  0  0  0  0
    1.5479   -1.2283   14.9826 N   0  0  0  0  0  0
    0.1677   -1.3941   14.7710 C   0  0  0  0  0  0
   -0.4602   -2.4239   15.4704 C   0  0  0  0  0  0
   -1.8355   -2.6159   15.3752 C   0  0  0  0  0  0
   -2.6230   -1.7731   14.5738 C   0  0  0  0  0  0
   -4.0010   -1.8829   14.4680 O   0  0  0  0  0  0
   -4.6818   -2.8597   15.2500 C   0  0  0  0  0  0
   -2.0042   -0.7480   13.8438 C   0  0  0  0  0  0
   -2.8219    0.0518   13.0620 O   0  0  0  0  0  0
   -2.2365    1.0381   12.2187 C   0  0  0  0  0  0
   -0.6131   -0.5698   13.9492 C   0  0  0  0  0  0
    2.2453    0.4888   13.4512 N   0  0  0  0  0  0
    1.4683    2.7696   11.7756 C   0  0  0  0  0  0
   -3.3394    4.5076   11.0249 C   0  0  0  0  0  0
   -4.6369    4.9079   11.3329 C   0  0  0  0  0  0
   -9.2356    5.0451   11.7411 H   0  0  0  0  0  0
   -8.8821    6.6978   12.2512 H   0  0  0  0  0  0
   -8.8881    5.3874   13.4386 H   0  0  0  0  0  0
   -4.0110    6.4497   14.3046 H   0  0  0  0  0  0
   -1.7470    5.7528   13.7630 H   0  0  0  0  0  0
   -0.3423    4.5184   12.4806 H   0  0  0  0  0  0
    1.7406    4.5206    8.8699 H   0  0  0  0  0  0
    4.0610    3.7408    9.0826 H   0  0  0  0  0  0
    4.7291    2.3079   10.9562 H   0  0  0  0  0  0
    5.2193    2.1176   13.2658 H   0  0  0  0  0  0
    6.7162    1.0791   15.2230 H   0  0  0  0  0  0
    6.2021   -0.7803   17.1217 H   0  0  0  0  0  0
    1.9117   -1.8378   15.7029 H   0  0  0  0  0  0
    0.1132   -3.0709   16.1225 H   0  0  0  0  0  0
   -2.2706   -3.4169   15.9533 H   0  0  0  0  0  0
   -5.7533   -2.7853   15.0668 H   0  0  0  0  0  0
   -4.3724   -3.8742   14.9901 H   0  0  0  0  0  0
   -4.5206   -2.6983   16.3185 H   0  0  0  0  0  0
   -3.0159    1.5132   11.6232 H   0  0  0  0  0  0
   -1.7496    1.8169   12.8061 H   0  0  0  0  0  0
   -1.5157    0.6035   11.5225 H   0  0  0  0  0  0
   -0.1526    0.2361   13.4101 H   0  0  0  0  0  0
    0.7501    2.4798   12.5293 H   0  0  0  0  0  0
   -3.1825    3.9510   10.1128 H   0  0  0  0  0  0
   -5.4276    4.6594   10.6383 H   0  0  0  0  0  0
  1  2  1  0  0  0
  1 40  1  0  0  0
  1 41  1  0  0  0
  1 42  1  0  0  0
  2  3  1  0  0  0
  3  4  2  0  0  0
  3  5  1  0  0  0
  5 39  1  0  0  0
  5  6  2  0  0  0
  6  7  1  0  0  0
  6 43  1  0  0  0
  7  8  2  0  0  0
  7 44  1  0  0  0
  8  9  1  0  0  0
  8 38  1  0  0  0
  9 10  1  0  0  0
  9 45  1  0  0  0
 10 11  2  0  0  0
 10 12  1  0  0  0
 12 37  1  0  0  0
 12 13  2  0  0  0
 13 14  1  0  0  0
 13 46  1  0  0  0
 14 15  2  0  0  0
 14 47  1  0  0  0
 15 16  1  0  0  0
 15 48  1  0  0  0
 16 17  1  0  0  0
 16 37  2  0  0  0
 17 36  1  0  0  0
 17 18  2  0  0  0
 18 19  1  0  0  0
 18 49  1  0  0  0
 19 23  1  0  0  0
 19 20  1  0  0  0
 20 21  2  0  0  0
 20 50  1  0  0  0
 21 22  1  0  0  0
 21 51  1  0  0  0
 22 23  2  0  0  0
 23 24  1  0  0  0
 24 25  1  0  0  0
 24 36  2  0  0  0
 25 26  1  0  0  0
 25 52  1  0  0  0
 26 35  1  0  0  0
 26 27  2  0  0  0
 27 28  1  0  0  0
 27 53  1  0  0  0
 28 29  2  0  0  0
 28 54  1  0  0  0
 29 30  1  0  0  0
 29 32  1  0  0  0
 30 31  1  0  0  0
 31 55  1  0  0  0
 31 56  1  0  0  0
 31 57  1  0  0  0
 32 33  1  0  0  0
 32 35  2  0  0  0
 33 34  1  0  0  0
 34 58  1  0  0  0
 34 59  1  0  0  0
 34 60  1  0  0  0
 35 61  1  0  0  0
 37 62  1  0  0  0
 38 39  2  0  0  0
 38 63  1  0  0  0
 39 64  1  0  0  0
M  END
> <s_m_source_file>
/home/user-home/yujie/0_PBCNetv2/data/FEP/syk/inp_ligprep.csv

> <i_m_source_file_index>
43

> <i_lp_mmshare_version>
51139

> <i_f3d_flags>
0

> <s_epik_input>
W0NIM11PQyg9TyljMVtjSF1bY0hdYyhbY0hdW2NIXTEpW05IXUMoPU8pYzJbY0hdW2NIXVtjSF1jKFtjSF0yKS1jKFtjSF0zKW5jKGMobjM0KW5bY0hdW2NIXTQpW05IXWM1W2NIXVtjSF1jKE9bQ0gzXSljKFtjSF01KU9bQ0gzXQ==

> <s_epik_cmdline>
J2VwaWtfcHl0aG9uJywgJy1waHQnLCAnMi4wJywgJy1waCcsICc3LjQnLCAnLXRuJywgJzgnLCAnLW1hJywgJzIwMCcsICctaW1hZScsICc8aW5maWxlLm1hZT4nLCAnLW9tYWUnLCAnPG91dGZpbGUubWFlPic=

> <r_lp_tautomer_probability>
1

> <r_epik_Ionization_Penalty>
  0.0009

> <r_epik_Ionization_Penalty_Charging>
  0.0009

> <r_epik_Ionization_Penalty_Neutral>
  0.0000

> <r_epik_State_Penalty>
  0.0005

> <r_epik_Charging_Adjusted_Penalty>
0.00140069

> <i_epik_Tot_Q>
0

> <i_epik_Tot_abs_Q>
0

> <s_epik_Chemistry_Notes>
This compound has an ester and may undergo hydrolysis at high or low pH.

> <s_lp_Force_Field>
OPLS3e

> <r_lp_Energy>
54.7465

> <b_lp_Chiralities_Consistent>
1

> <s_lp_Variant>
lig_syk_CHEMBL3264996-1

> <s_i_glide_gridfile>
syk-001-gridgen

> <i_i_glide_lignum>
69

> <i_i_glide_rotatable_bonds>
10

> <r_i_docking_score>
-9.29967464032628

> <r_i_glide_ligand_efficiency>
-0.238453195905802

> <r_i_glide_ligand_efficiency_sa>
-0.808645205591548

> <r_i_glide_ligand_efficiency_ln>
-1.99411422984924

> <r_i_glide_gscore>
-9.30022376732628

> <r_i_glide_lipo>
-3.05201074397614

> <r_i_glide_hbond>
-0.6472171741016

> <r_i_glide_metal>
-0

> <r_i_glide_rewards>
-1.6214749723811

> <r_i_glide_evdw>
-55.4285011291504

> <r_i_glide_ecoul>
-11.5472030639648

> <r_i_glide_erotb>
0.525352744383362

> <r_i_glide_esite>
-0.00136810519856394

> <r_i_glide_emodel>
-98.6151721271475

> <r_i_glide_energy>
-66.9757041931152

> <r_i_glide_einternal>
11.2037935256958

> <i_i_glide_confnum>
106

> <i_i_glide_posenum>
310

> <r_i_glide_eff_state_penalty>
0.000549127

$$$$
