lig_syk_CHEMBL3265001
                    3D
 Schrodinger Suite 2020-3.
 62 67  0  0  1  0            999 V2000
   -4.6427   -2.4787   15.4208 C   0  0  0  0  0  0
   -3.9752   -1.5671   14.5526 O   0  0  0  0  0  0
   -2.5913   -1.5055   14.5702 C   0  0  0  0  0  0
   -1.7878   -2.3557   15.3479 C   0  0  0  0  0  0
   -0.4057   -2.1954   15.3765 C   0  0  0  0  0  0
    0.2103   -1.1891   14.6350 C   0  0  0  0  0  0
    1.5946   -1.0318   14.8159 N   0  0  0  0  0  0
    2.5622   -0.1248   14.3478 C   0  0  0  0  0  0
    2.2725    0.7509   13.3447 N   0  0  0  0  0  0
    3.2137    1.6328   12.9097 C   0  0  0  0  0  0
    2.8446    2.5302   11.7770 C   0  0  0  0  0  0
    3.7886    2.8145   10.7818 C   0  0  0  0  0  0
    3.4775    3.6531    9.7181 C   0  0  0  0  0  0
    2.2144    4.2286    9.6323 C   0  0  0  0  0  0
    1.2440    3.9809   10.6135 C   0  0  0  0  0  0
   -0.1054    4.6580   10.4982 C   0  0  0  0  0  0
   -0.4956    5.0775    9.4045 O   0  0  0  0  0  0
   -0.8111    4.7965   11.6412 N   0  0  0  0  0  0
   -1.9742    5.5644   11.8097 C   0  0  0  0  0  0
   -2.0887    6.8602   11.2928 C   0  0  0  0  0  0
   -3.2314    7.6127   11.5526 C   0  0  0  0  0  0
   -4.2695    7.0876   12.3337 C   0  0  0  0  0  0
   -5.4951    7.9119   12.6246 C   0  0  0  0  0  0
   -5.4736    9.2245   12.7285 N   0  0  0  0  0  0
   -6.7761    9.5953   12.9695 N   0  0  0  0  0  0
   -7.5355    8.4559   12.9860 N   0  0  0  0  0  0
   -6.6909    7.3877   12.7916 N   0  5  0  0  0  0
   -4.1467    5.7860   12.8391 C   0  0  0  0  0  0
   -3.0062    5.0300   12.5779 C   0  0  0  0  0  0
    1.5720    3.1192   11.6784 C   0  0  0  0  0  0
    4.4814    1.6818   13.4874 C   0  0  0  0  0  0
    4.7625    0.8179   14.5063 N   0  0  0  0  0  0
    5.8814    0.6479   15.2714 C   0  0  0  0  0  0
    5.5631   -0.3603   16.1745 C   0  0  0  0  0  0
    4.3436   -0.8349   16.0187 N   0  0  0  0  0  0
    3.8284   -0.1203   14.9751 C   0  0  0  0  0  0
   -0.5803   -0.3759   13.8141 C   0  0  0  0  0  0
   -1.9788   -0.5227   13.7756 C   0  0  0  0  0  0
   -2.8099    0.2789   13.0096 O   0  0  0  0  0  0
   -2.2354    1.2033   12.0897 C   0  0  0  0  0  0
   -5.7205   -2.3669   15.3021 H   0  0  0  0  0  0
   -4.3923   -3.5134   15.1837 H   0  0  0  0  0  0
   -4.4045   -2.2830   16.4681 H   0  0  0  0  0  0
   -2.2164   -3.1297   15.9669 H   0  0  0  0  0  0
    0.1812   -2.8404   16.0173 H   0  0  0  0  0  0
    1.9741   -1.6550   15.5162 H   0  0  0  0  0  0
    4.7738    2.3733   10.8233 H   0  0  0  0  0  0
    4.2202    3.8600    8.9622 H   0  0  0  0  0  0
    2.0024    4.8842    8.7983 H   0  0  0  0  0  0
   -0.4628    4.3404   12.4696 H   0  0  0  0  0  0
   -1.2902    7.2941   10.7081 H   0  0  0  0  0  0
   -3.3062    8.6118   11.1497 H   0  0  0  0  0  0
   -4.9334    5.3640   13.4471 H   0  0  0  0  0  0
   -2.9274    4.0304   12.9721 H   0  0  0  0  0  0
    0.8478    2.9001   12.4504 H   0  0  0  0  0  0
    5.2586    2.3731   13.1996 H   0  0  0  0  0  0
    6.7771    1.2331   15.1295 H   0  0  0  0  0  0
    6.2255   -0.7458   16.9387 H   0  0  0  0  0  0
   -0.1183    0.3973   13.2288 H   0  0  0  0  0  0
   -3.0296    1.7050   11.5379 H   0  0  0  0  0  0
   -1.6565    1.9712   12.6040 H   0  0  0  0  0  0
   -1.5969    0.7003   11.3614 H   0  0  0  0  0  0
  1  2  1  0  0  0
  1 41  1  0  0  0
  1 42  1  0  0  0
  1 43  1  0  0  0
  2  3  1  0  0  0
  3 38  1  0  0  0
  3  4  2  0  0  0
  4  5  1  0  0  0
  4 44  1  0  0  0
  5  6  2  0  0  0
  5 45  1  0  0  0
  6  7  1  0  0  0
  6 37  1  0  0  0
  7  8  1  0  0  0
  7 46  1  0  0  0
  8 36  1  0  0  0
  8  9  2  0  0  0
  9 10  1  0  0  0
 10 11  1  0  0  0
 10 31  2  0  0  0
 11 30  1  0  0  0
 11 12  2  0  0  0
 12 13  1  0  0  0
 12 47  1  0  0  0
 13 14  2  0  0  0
 13 48  1  0  0  0
 14 15  1  0  0  0
 14 49  1  0  0  0
 15 16  1  0  0  0
 15 30  2  0  0  0
 16 17  2  0  0  0
 16 18  1  0  0  0
 18 19  1  0  0  0
 18 50  1  0  0  0
 19 29  1  0  0  0
 19 20  2  0  0  0
 20 21  1  0  0  0
 20 51  1  0  0  0
 21 22  2  0  0  0
 21 52  1  0  0  0
 22 23  1  0  0  0
 22 28  1  0  0  0
 23 27  1  0  0  0
 23 24  2  0  0  0
 24 25  1  0  0  0
 25 26  2  0  0  0
 26 27  1  0  0  0
 28 29  2  0  0  0
 28 53  1  0  0  0
 29 54  1  0  0  0
 30 55  1  0  0  0
 31 32  1  0  0  0
 31 56  1  0  0  0
 32 36  1  0  0  0
 32 33  1  0  0  0
 33 34  2  0  0  0
 33 57  1  0  0  0
 34 35  1  0  0  0
 34 58  1  0  0  0
 35 36  2  0  0  0
 37 38  2  0  0  0
 37 59  1  0  0  0
 38 39  1  0  0  0
 39 40  1  0  0  0
 40 60  1  0  0  0
 40 61  1  0  0  0
 40 62  1  0  0  0
M  CHG  1  27  -1
M  END
> <s_m_source_file>
/home/user-home/yujie/0_PBCNetv2/data/FEP/syk/inp_ligprep.csv

> <i_m_source_file_index>
8

> <i_lp_mmshare_version>
51139

> <i_f3d_flags>
0

> <s_epik_input>
W0NIM11PYzFbY0hdW2NIXWMoW2NIXWMxT1tDSDNdKVtOSF1jKGMobjIzKW5bY0hdW2NIXTMpbmMoW2NIXTIpLWM0W2NIXVtjSF1bY0hdYyhbY0hdNClDKD1PKVtOSF1jNVtjSF1bY0hdYyhbY0hdW2NIXTUpLWM2bm5uW25IXTY=

> <s_epik_cmdline>
J2VwaWtfcHl0aG9uJywgJy1waHQnLCAnMi4wJywgJy1waCcsICc3LjQnLCAnLXRuJywgJzgnLCAnLW1hJywgJzIwMCcsICctaW1hZScsICc8aW5maWxlLm1hZT4nLCAnLW9tYWUnLCAnPG91dGZpbGUubWFlPic=

> <r_lp_tautomer_probability>
1

> <r_epik_Ionization_Penalty>
  0.0029

> <r_epik_Ionization_Penalty_Charging>
  0.0029

> <r_epik_Ionization_Penalty_Neutral>
  0.0000

> <r_epik_State_Penalty>
 -0.0000

> <r_epik_Charging_Adjusted_Penalty>
0.00289321

> <i_epik_Tot_Q>
-1

> <i_epik_Tot_abs_Q>
1

> <s_lp_Force_Field>
OPLS3e

> <r_lp_Energy>
62.2854

> <b_lp_Chiralities_Consistent>
1

> <s_lp_Variant>
lig_syk_CHEMBL3265001-1

> <s_i_glide_gridfile>
syk-001-gridgen

> <i_i_glide_lignum>
15

> <i_i_glide_rotatable_bonds>
9

> <r_i_docking_score>
-8.64421583490364

> <r_i_glide_ligand_efficiency>
-0.216105395872591

> <r_i_glide_ligand_efficiency_sa>
-0.739070056869573

> <r_i_glide_ligand_efficiency_ln>
-1.84355684966893

> <r_i_glide_gscore>
-8.64421583490364

> <r_i_glide_lipo>
-3.0910950050209

> <r_i_glide_hbond>
-0.174620249726924

> <r_i_glide_metal>
-0

> <r_i_glide_rewards>
-1.51154990973506

> <r_i_glide_evdw>
-55.9204063415527

> <r_i_glide_ecoul>
-10.292142868042

> <r_i_glide_erotb>
0.509137096384302

> <r_i_glide_esite>
-0.0362460195211246

> <r_i_glide_emodel>
-98.2409104996792

> <r_i_glide_energy>
-66.2125492095947

> <r_i_glide_einternal>
12.741063117981

> <i_i_glide_confnum>
65

> <i_i_glide_posenum>
15

> <r_i_glide_eff_state_penalty>
-0

$$$$
