lig_syk_CHEMBL3264998
                    3D
 Schrodinger Suite 2020-3.
 63 67  0  0  1  0            999 V2000
   -4.6733   -3.0091   15.7699 C   0  0  0  0  0  0
   -4.0465   -2.0748   14.8965 O   0  0  0  0  0  0
   -2.6680   -1.9445   14.9252 C   0  0  0  0  0  0
   -1.8251   -2.7509   15.7095 C   0  0  0  0  0  0
   -0.4498   -2.5308   15.7332 C   0  0  0  0  0  0
    0.1208   -1.5080   14.9764 C   0  0  0  0  0  0
    1.5024   -1.2919   15.1272 N   0  0  0  0  0  0
    2.4331   -0.3823   14.5901 C   0  0  0  0  0  0
    2.0720    0.4719   13.5914 N   0  0  0  0  0  0
    2.9603    1.3738   13.0916 C   0  0  0  0  0  0
    2.4676    2.2980   12.0237 C   0  0  0  0  0  0
    3.3332    2.7233   11.0048 C   0  0  0  0  0  0
    2.8803    3.5302    9.9642 C   0  0  0  0  0  0
    1.5468    3.9259    9.9218 C   0  0  0  0  0  0
    0.6583    3.5430   10.9341 C   0  0  0  0  0  0
   -0.7917    3.9437   10.8362 C   0  0  0  0  0  0
   -1.3628    3.8670    9.7467 O   0  0  0  0  0  0
   -1.3527    4.3988   11.9808 N   0  0  0  0  0  0
   -2.6699    4.8574   12.2006 C   0  0  0  0  0  0
   -3.7466    4.6106   11.3340 C   0  0  0  0  0  0
   -5.0158    5.0971   11.6364 C   0  0  0  0  0  0
   -5.2339    5.8166   12.8130 C   0  0  0  0  0  0
   -6.6458    6.2987   13.1554 C   0  0  0  0  0  0
   -6.8319    7.8138   12.9752 C   0  0  0  0  0  0
   -5.9219    8.5735   13.3751 O   0  0  0  0  0  0
   -7.9261    8.1988   12.5072 O   0  5  0  0  0  0
   -4.1687    6.0458   13.6879 C   0  0  0  0  0  0
   -2.8919    5.5821   13.3751 C   0  0  0  0  0  0
    1.1333    2.7419   11.9865 C   0  0  0  0  0  0
    4.2702    1.4290   13.5661 C   0  0  0  0  0  0
    4.6301    0.5835   14.5775 N   0  0  0  0  0  0
    5.7964    0.4525   15.2795 C   0  0  0  0  0  0
    5.5314   -0.5096   16.2477 C   0  0  0  0  0  0
    4.3189   -1.0204   16.1745 N   0  0  0  0  0  0
    3.7351   -0.3477   15.1394 C   0  0  0  0  0  0
   -0.7118   -0.7314   14.1636 C   0  0  0  0  0  0
   -2.1027   -0.9330   14.1335 C   0  0  0  0  0  0
   -2.9687   -0.1590   13.3758 O   0  0  0  0  0  0
   -2.4415    0.8396   12.5055 C   0  0  0  0  0  0
   -5.7542   -2.9489   15.6448 H   0  0  0  0  0  0
   -4.3724   -4.0335   15.5448 H   0  0  0  0  0  0
   -4.4507   -2.7917   16.8160 H   0  0  0  0  0  0
   -2.2172   -3.5395   16.3343 H   0  0  0  0  0  0
    0.1670   -3.1463   16.3745 H   0  0  0  0  0  0
    1.9168   -1.8821   15.8364 H   0  0  0  0  0  0
    4.3643    2.4025   10.9944 H   0  0  0  0  0  0
    3.5583    3.8328    9.1796 H   0  0  0  0  0  0
    1.2076    4.5339    9.0941 H   0  0  0  0  0  0
   -0.7319    4.4937   12.7701 H   0  0  0  0  0  0
   -3.6312    4.0411   10.4262 H   0  0  0  0  0  0
   -5.8330    4.9039   10.9569 H   0  0  0  0  0  0
   -6.8706    6.0524   14.1921 H   0  0  0  0  0  0
   -7.3830    5.7570   12.5608 H   0  0  0  0  0  0
   -4.3282    6.5929   14.6063 H   0  0  0  0  0  0
   -2.0817    5.7777   14.0641 H   0  0  0  0  0  0
    0.4553    2.4208   12.7648 H   0  0  0  0  0  0
    5.0158    2.1319   13.2270 H   0  0  0  0  0  0
    6.6736    1.0484   15.0758 H   0  0  0  0  0  0
    6.2299   -0.8291   17.0070 H   0  0  0  0  0  0
   -0.2912    0.0607   13.5738 H   0  0  0  0  0  0
   -3.2553    1.3121   11.9556 H   0  0  0  0  0  0
   -1.9277    1.6232   13.0635 H   0  0  0  0  0  0
   -1.7566    0.4128   11.7710 H   0  0  0  0  0  0
  1  2  1  0  0  0
  1 40  1  0  0  0
  1 41  1  0  0  0
  1 42  1  0  0  0
  2  3  1  0  0  0
  3 37  1  0  0  0
  3  4  2  0  0  0
  4  5  1  0  0  0
  4 43  1  0  0  0
  5  6  2  0  0  0
  5 44  1  0  0  0
  6  7  1  0  0  0
  6 36  1  0  0  0
  7  8  1  0  0  0
  7 45  1  0  0  0
  8 35  1  0  0  0
  8  9  2  0  0  0
  9 10  1  0  0  0
 10 11  1  0  0  0
 10 30  2  0  0  0
 11 29  1  0  0  0
 11 12  2  0  0  0
 12 13  1  0  0  0
 12 46  1  0  0  0
 13 14  2  0  0  0
 13 47  1  0  0  0
 14 15  1  0  0  0
 14 48  1  0  0  0
 15 16  1  0  0  0
 15 29  2  0  0  0
 16 17  2  0  0  0
 16 18  1  0  0  0
 18 19  1  0  0  0
 18 49  1  0  0  0
 19 28  1  0  0  0
 19 20  2  0  0  0
 20 21  1  0  0  0
 20 50  1  0  0  0
 21 22  2  0  0  0
 21 51  1  0  0  0
 22 23  1  0  0  0
 22 27  1  0  0  0
 23 24  1  0  0  0
 23 52  1  0  0  0
 23 53  1  0  0  0
 24 25  2  0  0  0
 24 26  1  0  0  0
 27 28  2  0  0  0
 27 54  1  0  0  0
 28 55  1  0  0  0
 29 56  1  0  0  0
 30 31  1  0  0  0
 30 57  1  0  0  0
 31 35  1  0  0  0
 31 32  1  0  0  0
 32 33  2  0  0  0
 32 58  1  0  0  0
 33 34  1  0  0  0
 33 59  1  0  0  0
 34 35  2  0  0  0
 36 37  2  0  0  0
 36 60  1  0  0  0
 37 38  1  0  0  0
 38 39  1  0  0  0
 39 61  1  0  0  0
 39 62  1  0  0  0
 39 63  1  0  0  0
M  CHG  1  26  -1
M  END
> <s_m_source_file>
/home/user-home/yujie/0_PBCNetv2/data/FEP/syk/inp_ligprep.csv

> <i_m_source_file_index>
20

> <i_lp_mmshare_version>
51139

> <i_f3d_flags>
0

> <s_epik_input>
W0NIM11PYzFbY0hdW2NIXWMoW2NIXWMxT1tDSDNdKVtOSF1jKGMobjIzKW5bY0hdW2NIXTMpbmMoW2NIXTIpLWM0W2NIXVtjSF1bY0hdYyhbY0hdNClDKD1PKVtOSF1jNVtjSF1bY0hdYyhbY0hdW2NIXTUpW0NIMl1DKD1PKVtPSF0=

> <s_epik_cmdline>
J2VwaWtfcHl0aG9uJywgJy1waHQnLCAnMi4wJywgJy1waCcsICc3LjQnLCAnLXRuJywgJzgnLCAnLW1hJywgJzIwMCcsICctaW1hZScsICc8aW5maWxlLm1hZT4nLCAnLW9tYWUnLCAnPG91dGZpbGUubWFlPic=

> <r_lp_tautomer_probability>
1

> <r_epik_Ionization_Penalty>
  0.0013

> <r_epik_Ionization_Penalty_Charging>
  0.0013

> <r_epik_Ionization_Penalty_Neutral>
  0.0000

> <r_epik_State_Penalty>
 -0.0000

> <r_epik_Charging_Adjusted_Penalty>
0.00128141

> <i_epik_Tot_Q>
-1

> <i_epik_Tot_abs_Q>
1

> <s_lp_Force_Field>
OPLS3e

> <r_lp_Energy>
59.1745

> <b_lp_Chiralities_Consistent>
1

> <s_lp_Variant>
lig_syk_CHEMBL3264998-1

> <s_i_glide_gridfile>
syk-001-gridgen

> <i_i_glide_lignum>
35

> <i_i_glide_rotatable_bonds>
10

> <r_i_docking_score>
-9.09555057675548

> <r_i_glide_ligand_efficiency>
-0.233219245557833

> <r_i_glide_ligand_efficiency_sa>
-0.790895773301022

> <r_i_glide_ligand_efficiency_ln>
-1.95034423621354

> <r_i_glide_gscore>
-9.09555057675548

> <r_i_glide_lipo>
-3.01886761402067

> <r_i_glide_hbond>
-0.505965593529531

> <r_i_glide_metal>
-0

> <r_i_glide_rewards>
-1.41135123012344

> <r_i_glide_evdw>
-54.790843963623

> <r_i_glide_ecoul>
-12.7165832519531

> <r_i_glide_erotb>
0.527218365661561

> <r_i_glide_esite>
-0.039554818769276

> <r_i_glide_emodel>
-107.501444675889

> <r_i_glide_energy>
-67.5074272155762

> <r_i_glide_einternal>
11.5919036865234

> <i_i_glide_confnum>
55

> <i_i_glide_posenum>
367

> <r_i_glide_eff_state_penalty>
-0

$$$$
