lig_syk_CHEMBL3265006
                    3D
 Schrodinger Suite 2020-3.
 51 54  0  0  1  0            999 V2000
    0.5724    5.7886   13.3598 C   0  0  0  0  0  0
   -0.2506    5.4416   12.2027 N   0  0  0  0  0  0
    0.1727    4.9186   11.0383 C   0  0  0  0  0  0
   -0.5012    5.0502   10.0189 O   0  0  0  0  0  0
    1.4643    4.1370   10.9961 C   0  0  0  0  0  0
    2.3558    4.3143    9.9318 C   0  0  0  0  0  0
    3.5477    3.5935    9.8834 C   0  0  0  0  0  0
    3.8544    2.6780   10.8900 C   0  0  0  0  0  0
    2.9639    2.4526   11.9465 C   0  0  0  0  0  0
    3.2652    1.4501   13.0055 C   0  0  0  0  0  0
    4.5213    1.3392   13.5979 C   0  0  0  0  0  0
    4.6661    0.4601   14.6367 N   0  0  0  0  0  0
    5.7287    0.1869   15.4535 C   0  0  0  0  0  0
    5.2553   -0.7477   16.3690 C   0  0  0  0  0  0
    4.0018   -1.1009   16.1658 N   0  0  0  0  0  0
    3.6075   -0.3473   15.0980 C   0  0  0  0  0  0
    2.3691   -0.2105   14.4283 C   0  0  0  0  0  0
    1.2615   -0.9657   14.8557 N   0  0  0  0  0  0
   -0.0898   -1.0363   14.4664 C   0  0  0  0  0  0
   -0.6924   -0.2020   13.5115 C   0  0  0  0  0  0
   -2.0379   -0.3589   13.1765 C   0  0  0  0  0  0
   -2.7945   -1.3695   13.7757 C   0  0  0  0  0  0
   -4.1070   -1.5478   13.4095 O   0  0  0  0  0  0
   -4.3821   -2.7275   12.6642 C   0  0  0  0  0  0
   -2.2293   -2.1691   14.7720 C   0  0  0  0  0  0
   -3.0758   -3.0729   15.3797 O   0  0  0  0  0  0
   -2.5986   -3.8168   16.4807 C   0  0  0  0  0  0
   -0.8726   -2.0044   15.0974 C   0  0  0  0  0  0
    2.2258    0.6751   13.4072 N   0  0  0  0  0  0
    1.7739    3.1946   11.9863 C   0  0  0  0  0  0
    0.2279    6.7367   13.7742 H   0  0  0  0  0  0
    1.6275    5.9104   13.1051 H   0  0  0  0  0  0
    0.4847    5.0322   14.1402 H   0  0  0  0  0  0
   -1.1809    5.8303   12.1978 H   0  0  0  0  0  0
    2.1339    5.0202    9.1425 H   0  0  0  0  0  0
    4.2318    3.7429    9.0622 H   0  0  0  0  0  0
    4.7784    2.1213   10.8326 H   0  0  0  0  0  0
    5.3759    1.9477   13.3421 H   0  0  0  0  0  0
    6.6889    0.6690   15.3488 H   0  0  0  0  0  0
    5.8290   -1.1616   17.1862 H   0  0  0  0  0  0
    1.4999   -1.6061   15.6008 H   0  0  0  0  0  0
   -0.1455    0.5754   13.0067 H   0  0  0  0  0  0
   -2.4793    0.2718   12.4189 H   0  0  0  0  0  0
   -5.4222   -2.7161   12.3387 H   0  0  0  0  0  0
   -3.7621   -2.7786   11.7752 H   0  0  0  0  0  0
   -4.2299   -3.6375   13.2446 H   0  0  0  0  0  0
   -3.4003   -4.4364   16.8817 H   0  0  0  0  0  0
   -1.7849   -4.4773   16.1750 H   0  0  0  0  0  0
   -2.2631   -3.1472   17.2750 H   0  0  0  0  0  0
   -0.4137   -2.6284   15.8507 H   0  0  0  0  0  0
    1.0806    3.0274   12.7990 H   0  0  0  0  0  0
  1  2  1  0  0  0
  1 31  1  0  0  0
  1 32  1  0  0  0
  1 33  1  0  0  0
  2  3  1  0  0  0
  2 34  1  0  0  0
  3  4  2  0  0  0
  3  5  1  0  0  0
  5 30  1  0  0  0
  5  6  2  0  0  0
  6  7  1  0  0  0
  6 35  1  0  0  0
  7  8  2  0  0  0
  7 36  1  0  0  0
  8  9  1  0  0  0
  8 37  1  0  0  0
  9 10  1  0  0  0
  9 30  2  0  0  0
 10 29  1  0  0  0
 10 11  2  0  0  0
 11 12  1  0  0  0
 11 38  1  0  0  0
 12 16  1  0  0  0
 12 13  1  0  0  0
 13 14  2  0  0  0
 13 39  1  0  0  0
 14 15  1  0  0  0
 14 40  1  0  0  0
 15 16  2  0  0  0
 16 17  1  0  0  0
 17 18  1  0  0  0
 17 29  2  0  0  0
 18 19  1  0  0  0
 18 41  1  0  0  0
 19 28  1  0  0  0
 19 20  2  0  0  0
 20 21  1  0  0  0
 20 42  1  0  0  0
 21 22  2  0  0  0
 21 43  1  0  0  0
 22 23  1  0  0  0
 22 25  1  0  0  0
 23 24  1  0  0  0
 24 44  1  0  0  0
 24 45  1  0  0  0
 24 46  1  0  0  0
 25 26  1  0  0  0
 25 28  2  0  0  0
 26 27  1  0  0  0
 27 47  1  0  0  0
 27 48  1  0  0  0
 27 49  1  0  0  0
 28 50  1  0  0  0
 30 51  1  0  0  0
M  END
> <s_m_source_file>
/home/user-home/yujie/0_PBCNetv2/data/FEP/syk/inp_ligprep.csv

> <i_m_source_file_index>
41

> <i_lp_mmshare_version>
51139

> <i_f3d_flags>
0

> <s_epik_input>
W0NIM11bTkhdQyg9TyljMVtjSF1bY0hdW2NIXWMoW2NIXTEpLWMoW2NIXTIpbmMoYyhuMjMpbltjSF1bY0hdMylbTkhdYzRbY0hdW2NIXWMoT1tDSDNdKWMoW2NIXTQpT1tDSDNd

> <s_epik_cmdline>
J2VwaWtfcHl0aG9uJywgJy1waHQnLCAnMi4wJywgJy1waCcsICc3LjQnLCAnLXRuJywgJzgnLCAnLW1hJywgJzIwMCcsICctaW1hZScsICc8aW5maWxlLm1hZT4nLCAnLW9tYWUnLCAnPG91dGZpbGUubWFlPic=

> <r_lp_tautomer_probability>
1

> <r_epik_Ionization_Penalty>
  0.0009

> <r_epik_Ionization_Penalty_Charging>
  0.0009

> <r_epik_Ionization_Penalty_Neutral>
  0.0000

> <r_epik_State_Penalty>
  0.0005

> <r_epik_Charging_Adjusted_Penalty>
0.00140069

> <i_epik_Tot_Q>
0

> <i_epik_Tot_abs_Q>
0

> <s_lp_Force_Field>
OPLS3e

> <r_lp_Energy>
44.7243

> <b_lp_Chiralities_Consistent>
1

> <s_lp_Variant>
lig_syk_CHEMBL3265006-1

> <s_i_glide_gridfile>
syk-001-gridgen

> <i_i_glide_lignum>
67

> <i_i_glide_rotatable_bonds>
7

> <r_i_docking_score>
-5.41352289440192

> <r_i_glide_ligand_efficiency>
-0.180450763146731

> <r_i_glide_ligand_efficiency_sa>
-0.560702476338015

> <r_i_glide_ligand_efficiency_ln>
-1.23001138666438

> <r_i_glide_gscore>
-5.41407202140192

> <r_i_glide_lipo>
-2.78444694644228

> <r_i_glide_hbond>
-0.246505581022719

> <r_i_glide_metal>
-0

> <r_i_glide_rewards>
0.539511939454058

> <r_i_glide_evdw>
-43.0951499938965

> <r_i_glide_ecoul>
-8.21206188201904

> <r_i_glide_erotb>
0.482515586722796

> <r_i_glide_esite>
-0.0185802381160878

> <r_i_glide_emodel>
-56.7089565007019

> <r_i_glide_energy>
-51.3072118759155

> <r_i_glide_einternal>
14.1693382263184

> <i_i_glide_confnum>
26

> <i_i_glide_posenum>
30

> <r_i_glide_eff_state_penalty>
0.000549127

$$$$
