lig_syk_CHEMBL3265022
                    3D
 Schrodinger Suite 2020-3.
 50 54  0  0  1  0            999 V2000
   -4.6306   -3.0041   15.8607 C   0  0  0  0  0  0
   -4.0111   -2.0872   14.9629 O   0  0  0  0  0  0
   -2.6322   -1.9583   14.9745 C   0  0  0  0  0  0
   -1.7833   -2.7503   15.7659 C   0  0  0  0  0  0
   -0.4085   -2.5295   15.7727 C   0  0  0  0  0  0
    0.1568   -1.5213   14.9934 C   0  0  0  0  0  0
    1.5409   -1.3099   15.1321 N   0  0  0  0  0  0
    2.4691   -0.4028   14.5865 C   0  0  0  0  0  0
    2.1019    0.4397   13.5831 N   0  0  0  0  0  0
    2.9849    1.3464   13.0835 C   0  0  0  0  0  0
    2.4620    2.3081   12.0723 C   0  0  0  0  0  0
    3.2536    2.6767   10.9754 C   0  0  0  0  0  0
    2.8113    3.5823   10.0118 C   0  0  0  0  0  0
    1.5401    4.1487   10.1644 C   0  0  0  0  0  0
    0.7375    5.0826    9.4465 C   0  0  0  0  0  0
   -0.4095    5.2888   10.0413 N   0  0  0  0  0  0
   -0.4142    4.5315   11.1558 N   0  0  0  0  0  0
   -1.5753    4.5748   12.0310 C   0  0  0  0  0  0
    0.7470    3.7868   11.2802 C   0  0  0  0  0  0
    1.1840    2.8645   12.2362 C   0  0  0  0  0  0
    4.2957    1.4144   13.5503 C   0  0  0  0  0  0
    4.6572    0.5869   14.5759 N   0  0  0  0  0  0
    5.8174    0.4823   15.2922 C   0  0  0  0  0  0
    5.5503   -0.4646   16.2738 C   0  0  0  0  0  0
    4.3551   -1.0096   16.1751 N   0  0  0  0  0  0
    3.7687   -0.3478   15.1386 C   0  0  0  0  0  0
   -0.6821   -0.7592   14.1715 C   0  0  0  0  0  0
   -2.0736   -0.9675   14.1539 C   0  0  0  0  0  0
   -2.9482   -0.2232   13.3771 O   0  0  0  0  0  0
   -2.4215    0.6641   12.3929 C   0  0  0  0  0  0
   -5.7128   -2.9467   15.7444 H   0  0  0  0  0  0
   -4.3322   -4.0324   15.6515 H   0  0  0  0  0  0
   -4.3976   -2.7679   16.9011 H   0  0  0  0  0  0
   -2.1712   -3.5267   16.4080 H   0  0  0  0  0  0
    0.2135   -3.1347   16.4187 H   0  0  0  0  0  0
    1.9574   -1.8977   15.8422 H   0  0  0  0  0  0
    4.2338    2.2387   10.8571 H   0  0  0  0  0  0
    3.4365    3.8440    9.1713 H   0  0  0  0  0  0
    0.9875    5.6013    8.5338 H   0  0  0  0  0  0
   -1.3594    4.0648   12.9717 H   0  0  0  0  0  0
   -1.8334    5.6132   12.2469 H   0  0  0  0  0  0
   -2.4165    4.0855   11.5391 H   0  0  0  0  0  0
    0.5732    2.6060   13.0882 H   0  0  0  0  0  0
    5.0285    2.1322   13.2140 H   0  0  0  0  0  0
    6.6849    1.0941   15.0944 H   0  0  0  0  0  0
    6.2314   -0.7496   17.0604 H   0  0  0  0  0  0
   -0.2672    0.0210   13.5617 H   0  0  0  0  0  0
   -3.2403    1.0881   11.8124 H   0  0  0  0  0  0
   -1.8786    1.4927   12.8495 H   0  0  0  0  0  0
   -1.7655    0.1398   11.6953 H   0  0  0  0  0  0
  1  2  1  0  0  0
  1 31  1  0  0  0
  1 32  1  0  0  0
  1 33  1  0  0  0
  2  3  1  0  0  0
  3 28  1  0  0  0
  3  4  2  0  0  0
  4  5  1  0  0  0
  4 34  1  0  0  0
  5  6  2  0  0  0
  5 35  1  0  0  0
  6  7  1  0  0  0
  6 27  1  0  0  0
  7  8  1  0  0  0
  7 36  1  0  0  0
  8 26  1  0  0  0
  8  9  2  0  0  0
  9 10  1  0  0  0
 10 11  1  0  0  0
 10 21  2  0  0  0
 11 20  1  0  0  0
 11 12  2  0  0  0
 12 13  1  0  0  0
 12 37  1  0  0  0
 13 14  2  0  0  0
 13 38  1  0  0  0
 14 19  1  0  0  0
 14 15  1  0  0  0
 15 16  2  0  0  0
 15 39  1  0  0  0
 16 17  1  0  0  0
 17 18  1  0  0  0
 17 19  1  0  0  0
 18 40  1  0  0  0
 18 41  1  0  0  0
 18 42  1  0  0  0
 19 20  2  0  0  0
 20 43  1  0  0  0
 21 22  1  0  0  0
 21 44  1  0  0  0
 22 26  1  0  0  0
 22 23  1  0  0  0
 23 24  2  0  0  0
 23 45  1  0  0  0
 24 25  1  0  0  0
 24 46  1  0  0  0
 25 26  2  0  0  0
 27 28  2  0  0  0
 27 47  1  0  0  0
 28 29  1  0  0  0
 29 30  1  0  0  0
 30 48  1  0  0  0
 30 49  1  0  0  0
 30 50  1  0  0  0
M  END
> <s_m_source_file>
/home/user-home/yujie/0_PBCNetv2/data/FEP/syk/inp_ligprep.csv

> <i_m_source_file_index>
44

> <i_lp_mmshare_version>
51139

> <i_f3d_flags>
0

> <s_epik_input>
W0NIM11PYzFbY0hdW2NIXWMoW2NIXWMxT1tDSDNdKVtOSF1jKGMobjIzKW5bY0hdW2NIXTMpbmMoW2NIXTIpLWMoW2NIXVtjSF00KVtjSF1jKGM0NSluKFtDSDNdKW5bY0hdNQ==

> <s_epik_cmdline>
J2VwaWtfcHl0aG9uJywgJy1waHQnLCAnMi4wJywgJy1waCcsICc3LjQnLCAnLXRuJywgJzgnLCAnLW1hJywgJzIwMCcsICctaW1hZScsICc8aW5maWxlLm1hZT4nLCAnLW9tYWUnLCAnPG91dGZpbGUubWFlPic=

> <r_lp_tautomer_probability>
1

> <r_epik_Ionization_Penalty>
  0.0009

> <r_epik_Ionization_Penalty_Charging>
  0.0009

> <r_epik_Ionization_Penalty_Neutral>
  0.0000

> <r_epik_State_Penalty>
  0.0005

> <r_epik_Charging_Adjusted_Penalty>
0.00140069

> <i_epik_Tot_Q>
0

> <i_epik_Tot_abs_Q>
0

> <s_lp_Force_Field>
OPLS3e

> <r_lp_Energy>
44.3344

> <b_lp_Chiralities_Consistent>
1

> <s_lp_Variant>
lig_syk_CHEMBL3265022-1

> <s_i_glide_gridfile>
syk-001-gridgen

> <i_i_glide_lignum>
70

> <i_i_glide_rotatable_bonds>
5

> <r_i_docking_score>
-8.031390118519

> <r_i_glide_ligand_efficiency>
-0.267713003950633

> <r_i_glide_ligand_efficiency_sa>
-0.83184654719887

> <r_i_glide_ligand_efficiency_ln>
-1.82481934393178

> <r_i_glide_gscore>
-8.031939245519

> <r_i_glide_lipo>
-2.47644281908614

> <r_i_glide_hbond>
-0.357211436280135

> <r_i_glide_metal>
-0

> <r_i_glide_rewards>
-2.096599658345

> <r_i_glide_evdw>
-46.1769599914551

> <r_i_glide_ecoul>
-7.72563791275024

> <r_i_glide_erotb>
0.366784645853232

> <r_i_glide_esite>
-0.000776291175671196

> <r_i_glide_emodel>
-76.0620433177591

> <r_i_glide_energy>
-53.9025979042053

> <r_i_glide_einternal>
7.05017471313477

> <i_i_glide_confnum>
18

> <i_i_glide_posenum>
269

> <r_i_glide_eff_state_penalty>
0.000549127

$$$$
