FMN
                    3D
 Schrodinger Suite 2024-1.
 50 52  0  0  1  0            999 V2000
   17.2440    7.4357    2.5785 N   0  0  0  0  0  0
   17.8718    6.1931    2.5909 C   0  0  0  0  0  0
   17.2405    5.1566    2.4244 O   0  0  0  0  0  0
   19.2055    6.1364    2.8244 N   0  0  0  0  0  0
   20.0350    7.1625    3.1132 C   0  0  0  0  0  0
   21.2360    6.9996    3.3228 O   0  0  0  0  0  0
   19.3892    8.5280    3.1309 C   0  0  0  0  0  0
   20.0560    9.5999    3.3448 N   0  0  0  0  0  0
   19.4376   10.8601    3.2244 C   0  0  0  0  0  0
   20.2528   12.0064    3.2836 C   0  0  0  0  0  0
   19.7154   13.2916    3.0803 C   0  0  0  0  0  0
   20.6385   14.4956    3.1342 C   0  0  0  0  0  0
   18.3321   13.4353    2.8245 C   0  0  0  0  0  0
   17.7099   14.7987    2.5759 C   0  0  0  0  0  0
   17.5050   12.2944    2.7878 C   0  0  0  0  0  0
   18.0455   10.9956    2.9602 C   0  0  0  0  0  0
   17.3093    9.7958    2.8186 N   0  0  0  0  0  0
   17.9048    8.5284    2.8244 C   0  0  0  0  0  0
   15.8568    9.9225    2.6002 C   0  0  0  0  0  0
   15.0490   10.0962    3.9073 C   0  0  2  0  0  0
   15.2440    8.9333    4.6853 O   0  0  0  0  0  0
   13.5353   10.2424    3.6099 C   0  0  2  0  0  0
   13.3246   11.4914    2.9742 O   0  0  0  0  0  0
   12.6067   10.0784    4.8454 C   0  0  2  0  0  0
   11.2642   10.0133    4.4244 O   0  0  0  0  0  0
   12.6719   11.1676    5.9282 C   0  0  0  0  0  0
   11.9255   10.6649    7.0291 O   0  0  0  0  0  0
   11.6064   11.7171    8.2289 P   0  0  0  0  0  0
   10.7713   10.9364    9.2244 O   0  0  0  0  0  0
   10.8440   12.8782    7.6244 O   0  5  0  0  0  0
   12.9272   12.1364    8.8244 O   0  5  0  0  0  0
   19.6195    5.2088    2.8244 H   0  0  0  0  0  0
   21.3122   11.8913    3.4591 H   0  0  0  0  0  0
   21.6847   14.1925    3.1856 H   0  0  0  0  0  0
   20.5153   15.1164    2.2466 H   0  0  0  0  0  0
   20.4211   15.0991    4.0157 H   0  0  0  0  0  0
   18.1373   15.5619    3.2244 H   0  0  0  0  0  0
   17.8715   15.0992    1.5406 H   0  0  0  0  0  0
   16.6349   14.7785    2.7590 H   0  0  0  0  0  0
   16.4549   12.4502    2.5965 H   0  0  0  0  0  0
   15.4699    9.0507    2.0715 H   0  0  0  0  0  0
   15.6421   10.7267    1.8988 H   0  0  0  0  0  0
   15.4046   10.9567    4.4763 H   0  0  0  0  0  0
   16.1314    8.9364    5.0395 H   0  0  0  0  0  0
   13.2604    9.4662    2.8928 H   0  0  0  0  0  0
   12.8439   11.3363    2.1662 H   0  0  0  0  0  0
   12.8190    9.1177    5.3163 H   0  0  0  0  0  0
   10.7653    9.9840    5.2295 H   0  0  0  0  0  0
   12.2757   12.1174    5.5646 H   0  0  0  0  0  0
   13.7006   11.3363    6.2462 H   0  0  0  0  0  0
  1  2  1  0  0  0
  1 18  2  0  0  0
  2  3  2  0  0  0
  2  4  1  0  0  0
  4  5  1  0  0  0
  4 32  1  0  0  0
  5  6  2  0  0  0
  5  7  1  0  0  0
  7  8  2  0  0  0
  7 18  1  0  0  0
  8  9  1  0  0  0
  9 10  2  0  0  0
  9 16  1  0  0  0
 10 11  1  0  0  0
 10 33  1  0  0  0
 11 12  1  0  0  0
 11 13  2  0  0  0
 12 34  1  0  0  0
 12 35  1  0  0  0
 12 36  1  0  0  0
 13 14  1  0  0  0
 13 15  1  0  0  0
 14 37  1  0  0  0
 14 38  1  0  0  0
 14 39  1  0  0  0
 15 16  2  0  0  0
 15 40  1  0  0  0
 16 17  1  0  0  0
 17 18  1  0  0  0
 17 19  1  0  0  0
 19 20  1  0  0  0
 19 41  1  0  0  0
 19 42  1  0  0  0
 20 21  1  0  0  0
 20 22  1  0  0  0
 20 43  1  0  0  0
 21 44  1  0  0  0
 22 23  1  0  0  0
 22 24  1  0  0  0
 22 45  1  0  0  0
 23 46  1  0  0  0
 24 25  1  0  0  0
 24 26  1  0  0  0
 24 47  1  0  0  0
 25 48  1  0  0  0
 26 27  1  0  0  0
 26 49  1  0  0  0
 26 50  1  0  0  0
 27 28  1  0  0  0
 28 29  2  0  0  0
 28 30  1  0  0  0
 28 31  1  0  0  0
M  CHG  2  30  -1  31  -1
M  END
> <i_epik_Tot_Q>
-2

> <i_epik_Tot_abs_Q>
2

> <i_f3d_flags>
0

> <i_i_glide_confnum>
39

> <i_i_glide_lignum>
1

> <i_i_glide_posenum>
371

> <i_i_glide_rotatable_bonds>
10

> <i_lp_mmshare_version>
65135

> <i_m_Source_File_Index>
1

> <i_m_source_file_index>
1

> <i_m_stars>
0

> <b_lp_Chiralities_Consistent>
1

> <b_m_subgroup_collapsed>
0

> <r_epik_Charging_Adjusted_Penalty>
0.232173

> <r_epik_Ionization_Penalty>
0.1164

> <r_epik_Ionization_Penalty_Charging>
0.1164

> <r_epik_Ionization_Penalty_Neutral>
0

> <r_epik_State_Penalty>
0.1158

> <r_i_docking_score>
-13.1969

> <r_i_glide_ecoul>
-54.4611

> <r_i_glide_eff_state_penalty>
0.1158

> <r_i_glide_einternal>
18.9876

> <r_i_glide_emodel>
-199.956

> <r_i_glide_energy>
-107.336

> <r_i_glide_erotb>
0.408582

> <r_i_glide_esite>
0

> <r_i_glide_evdw>
-52.8754

> <r_i_glide_gscore>
-13.3127

> <r_i_glide_hbond>
-2.35215

> <r_i_glide_ligand_efficiency>
-0.425707

> <r_i_glide_ligand_efficiency_ln>
-2.97631

> <r_i_glide_ligand_efficiency_sa>
-1.33731

> <r_i_glide_lipo>
-2.10823

> <r_i_glide_metal>
0

> <r_i_glide_rewards>
-2.61716

> <r_lp_Energy>
34.0109

> <s_epik_cmdline>
J2VwaWtfcHl0aG9uJywgJy1waCcsICc3LjAnLCAnLXRuJywgJzgnLCAnLW1hJywgJzUwMCcsICctaW1hZScsICc8aW5maWxlLm1hZT4nLCAnLW9tYWUnLCAnPG91dGZpbGUubWFlPic=

> <s_epik_input>
Tz1jMVtuSF1jKD1PKW5jKGMxMiluKGMzYyhuMilbY0hdYyhbQ0gzXSljKFtDSDNdKVtjSF0zKVtDSDJdW0NASF0oW09IXSlbQ0BIXShbT0hdKVtDQEhdKFtPSF0pW0NIMl1PUCg9TykoW09IXSlbT0hd

> <s_i_glide_gridfile>
glide-grid_P0A3E0_MT_Y94W

> <s_lp_Force_Field>
S-OPLS

> <s_lp_Variant>
FMN-1

> <s_m_Source_File>
glide-dock_SP_P0A3E0_MT_Y94W_pv.maegz

> <s_m_Source_Path>
D:\project\glide-dock_SP_P0A3E0_MT_Y94W

> <s_m_entry_id>
331

> <s_m_entry_name>
Structure247

> <s_m_job_name>
glide-dock_SP_P0A3E0_MT_Y94W

> <s_m_source_file>
ligprep_FMN.maegz

> <s_m_subgroup_title>
glide-dock_SP_P0A3E0_MT_Y94W_pv

> <s_m_subgroupid>
glide-dock_SP_P0A3E0_MT_Y94W_pv

> <s_pdb_PDB_TITLE>
WT_2V5V_complex

> <s_pdb_PDB_format_version>
3.0

$$$$
