FMN
                    3D
 Schrodinger Suite 2024-1.
 50 52  0  0  1  0            999 V2000
   19.4416   10.2555   27.2022 N   0  0  0  0  0  0
   20.2095    9.1208   27.4797 C   0  0  0  0  0  0
   20.2230    8.1270   26.7669 O   0  0  0  0  0  0
   20.9673    9.1121   28.5857 N   0  0  0  0  0  0
   21.0897   10.0854   29.4926 C   0  0  0  0  0  0
   21.9009    9.9770   30.3887 O   0  0  0  0  0  0
   20.2440   11.3041   29.2919 C   0  0  0  0  0  0
   20.2502   12.2923   30.1082 N   0  0  0  0  0  0
   19.4444   13.4192   29.8638 C   0  0  0  0  0  0
   19.5080   14.4956   30.7668 C   0  0  0  0  0  0
   18.6447   15.6003   30.6415 C   0  0  0  0  0  0
   18.7041   16.7116   31.6749 C   0  0  0  0  0  0
   17.7243   15.6434   29.5703 C   0  0  0  0  0  0
   16.7554   16.8027   29.4184 C   0  0  0  0  0  0
   17.7046   14.5991   28.6224 C   0  0  0  0  0  0
   18.5765   13.4898   28.7420 C   0  0  0  0  0  0
   18.6559   12.4215   27.8178 N   0  0  0  0  0  0
   19.4230   11.2681   28.0264 C   0  0  0  0  0  0
   18.1349   12.6746   26.4727 C   0  0  0  0  0  0
   16.8985   11.8172   26.1418 C   0  0  2  0  0  0
   16.9291   11.5184   24.7656 O   0  0  0  0  0  0
   15.5559   12.4555   26.5459 C   0  0  1  0  0  0
   15.4111   13.7435   25.9670 O   0  0  0  0  0  0
   14.3177   11.5714   26.2568 C   0  0  2  0  0  0
   14.2441   11.3161   24.8667 O   0  0  0  0  0  0
   13.0312   12.2490   26.7375 C   0  0  0  0  0  0
   11.9487   11.3418   26.7669 O   0  0  0  0  0  0
   10.5155   12.1005   26.8861 P   0  0  0  0  0  0
    9.4445   11.1121   27.1669 O   0  0  0  0  0  0
   10.2442   12.7122   25.5670 O   0  5  0  0  0  0
   10.6442   13.1374   27.9670 O   0  5  0  0  0  0
   21.5134    8.2761   28.7557 H   0  0  0  0  0  0
   20.2096   14.4518   31.5854 H   0  0  0  0  0  0
   19.5456   16.5786   32.3554 H   0  0  0  0  0  0
   18.8194   17.6819   31.1928 H   0  0  0  0  0  0
   17.7907   16.7252   32.2709 H   0  0  0  0  0  0
   16.1406   16.9054   30.3135 H   0  0  0  0  0  0
   17.2967   17.7361   29.2586 H   0  0  0  0  0  0
   16.0855   16.6546   28.5705 H   0  0  0  0  0  0
   16.9975   14.6674   27.8129 H   0  0  0  0  0  0
   18.9382   12.4191   25.7859 H   0  0  0  0  0  0
   17.9694   13.7270   26.2518 H   0  0  0  0  0  0
   16.9591   10.8499   26.6405 H   0  0  0  0  0  0
   17.0709   12.3064   24.2559 H   0  0  0  0  0  0
   15.5945   12.6101   27.6257 H   0  0  0  0  0  0
   14.6515   14.1441   26.3676 H   0  0  0  0  0  0
   14.4442   10.6176   26.7666 H   0  0  0  0  0  0
   15.1321   11.1128   24.5843 H   0  0  0  0  0  0
   12.8001   13.1178   26.1197 H   0  0  0  0  0  0
   13.1749   12.6154   27.7554 H   0  0  0  0  0  0
  1  2  1  0  0  0
  1 18  2  0  0  0
  2  3  2  0  0  0
  2  4  1  0  0  0
  4  5  1  0  0  0
  4 32  1  0  0  0
  5  6  2  0  0  0
  5  7  1  0  0  0
  7  8  2  0  0  0
  7 18  1  0  0  0
  8  9  1  0  0  0
  9 10  2  0  0  0
  9 16  1  0  0  0
 10 11  1  0  0  0
 10 33  1  0  0  0
 11 12  1  0  0  0
 11 13  2  0  0  0
 12 34  1  0  0  0
 12 35  1  0  0  0
 12 36  1  0  0  0
 13 14  1  0  0  0
 13 15  1  0  0  0
 14 37  1  0  0  0
 14 38  1  0  0  0
 14 39  1  0  0  0
 15 16  2  0  0  0
 15 40  1  0  0  0
 16 17  1  0  0  0
 17 18  1  0  0  0
 17 19  1  0  0  0
 19 20  1  0  0  0
 19 41  1  0  0  0
 19 42  1  0  0  0
 20 21  1  0  0  0
 20 22  1  0  0  0
 20 43  1  0  0  0
 21 44  1  0  0  0
 22 23  1  0  0  0
 22 24  1  0  0  0
 22 45  1  0  0  0
 23 46  1  0  0  0
 24 25  1  0  0  0
 24 26  1  0  0  0
 24 47  1  0  0  0
 25 48  1  0  0  0
 26 27  1  0  0  0
 26 49  1  0  0  0
 26 50  1  0  0  0
 27 28  1  0  0  0
 28 29  2  0  0  0
 28 30  1  0  0  0
 28 31  1  0  0  0
M  CHG  2  30  -1  31  -1
M  END
> <Tot Q>
-2

> <flags>
0

> <stars>
0

> <subgroup collapsed>
0

> <Ionization Penalty>
0.1164

> <State Penalty>
0.1158

> <docking score>
-9.13409

> <glide emodel>
-78.1911

> <glide gscore>
-9.24989

> <entry id>
869

> <subgroup title>
glide-dock_SP_P0A3E0_WT_2_pv

> <subgroupid>
glide-dock_SP_P0A3E0_WT_2_pv

> <PDB TITLE>
WT_2V5V_complex

$$$$
