lig28
                    3D
 Schrodinger Suite 2024-1.
 67 72  0  0  1  0            999 V2000
   14.2283   34.5826  -13.0258 O   0  0  0  0  0  0
   14.1023   35.3606  -13.9746 C   0  0  0  0  0  0
   13.3189   36.4559  -13.9651 N   0  0  0  0  0  0
   12.4885   36.8562  -12.9281 C   0  0  0  0  0  0
   11.8448   36.1815  -11.8974 C   0  0  0  0  0  0
   11.0348   37.1261  -11.2365 C   0  0  0  0  0  0
   10.0995   36.9410  -10.0741 C   0  0  0  0  0  0
    9.1645   37.9192   -9.7015 C   0  0  0  0  0  0
    8.3731   37.7119   -8.5692 C   0  0  0  0  0  0
    8.5204   36.5356   -7.8348 C   0  0  0  0  0  0
    9.4484   35.5919   -8.2747 C   0  0  0  0  0  0
   10.2347   35.7828   -9.3691 N   0  0  0  0  0  0
   11.2076   38.3157  -11.7704 N   0  0  0  0  0  0
   12.0888   38.1599  -12.7678 N   0  0  0  0  0  0
   12.4791   39.3315  -13.5435 C   0  0  0  0  0  0
   13.7774   39.9906  -13.0231 C   0  0  0  0  0  0
   14.0595   41.2656  -13.8258 C   0  0  0  0  0  0
   15.4048   41.9157  -13.4268 C   0  0  0  0  0  0
   15.4670   42.2013  -11.9104 C   0  0  0  0  0  0
   15.0780   40.9688  -11.0648 C   0  0  0  0  0  0
   13.7349   40.3762  -11.5357 C   0  0  0  0  0  0
   14.8040   35.0970  -15.2872 C   0  0  0  0  0  0
   14.5765   33.8547  -15.8008 N   0  0  0  0  0  0
   15.1267   33.5246  -16.9985 C   0  0  0  0  0  0
   14.9163   32.1102  -17.5129 C   0  0  0  0  0  0
   15.8039   30.9815  -17.0492 C   0  0  0  0  0  0
   14.3379   30.9903  -16.6762 C   0  0  0  0  0  0
   15.8929   34.4184  -17.7388 C   0  0  0  0  0  0
   16.1415   35.6782  -17.2058 C   0  0  0  0  0  0
   15.6265   36.0399  -15.9513 C   0  0  0  0  0  0
   15.9144   37.3134  -15.4223 N   0  0  0  0  0  0
   16.9353   38.2076  -15.7797 C   0  0  0  0  0  0
   18.2211   37.8105  -16.1672 C   0  0  0  0  0  0
   19.1749   38.6946  -16.5659 N   0  0  0  0  0  0
   18.8159   40.0028  -16.5542 C   0  0  0  0  0  0
   17.6149   40.4992  -16.1692 N   0  0  0  0  0  0
   16.6953   39.5802  -15.7761 C   0  0  0  0  0  0
   13.2794   37.0061  -14.8101 H   0  0  0  0  0  0
   11.9196   35.1280  -11.6786 H   0  0  0  0  0  0
    9.0585   38.8309  -10.2705 H   0  0  0  0  0  0
    7.6523   38.4559   -8.2638 H   0  0  0  0  0  0
    7.9173   36.3512   -6.9574 H   0  0  0  0  0  0
    9.5776   34.6619   -7.7385 H   0  0  0  0  0  0
   12.6487   39.0123  -14.5690 H   0  0  0  0  0  0
   11.6467   40.0384  -13.5588 H   0  0  0  0  0  0
   14.6113   39.2993  -13.1701 H   0  0  0  0  0  0
   14.0445   40.9829  -14.8777 H   0  0  0  0  0  0
   13.2360   41.9737  -13.7134 H   0  0  0  0  0  0
   16.2322   41.2586  -13.6848 H   0  0  0  0  0  0
   15.5579   42.8359  -13.9925 H   0  0  0  0  0  0
   16.4657   42.5426  -11.6353 H   0  0  0  0  0  0
   14.7903   43.0239  -11.6757 H   0  0  0  0  0  0
   15.8531   40.2020  -11.1401 H   0  0  0  0  0  0
   15.0231   41.2429  -10.0102 H   0  0  0  0  0  0
   12.9074   41.0608  -11.3433 H   0  0  0  0  0  0
   13.5052   39.4818  -10.9697 H   0  0  0  0  0  0
   14.6485   32.0847  -18.5701 H   0  0  0  0  0  0
   16.1584   30.2571  -17.7825 H   0  0  0  0  0  0
   16.5518   31.1983  -16.2861 H   0  0  0  0  0  0
   14.0452   31.1997  -15.6475 H   0  0  0  0  0  0
   13.6637   30.2813  -17.1582 H   0  0  0  0  0  0
   16.2947   34.1446  -18.7011 H   0  0  0  0  0  0
   16.7307   36.3708  -17.7869 H   0  0  0  0  0  0
   15.3013   37.6341  -14.6874 H   0  0  0  0  0  0
   18.5061   36.7702  -16.1686 H   0  0  0  0  0  0
   19.5415   40.7176  -16.9111 H   0  0  0  0  0  0
   15.7238   39.9547  -15.5264 H   0  0  0  0  0  0
  1  2  2  0  0  0
  2  3  1  0  0  0
  2 22  1  0  0  0
  3  4  1  0  0  0
  3 38  1  0  0  0
  4 14  1  0  0  0
  4  5  2  0  0  0
  5  6  1  0  0  0
  5 39  1  0  0  0
  6  7  1  0  0  0
  6 13  2  0  0  0
  7 12  1  0  0  0
  7  8  2  0  0  0
  8  9  1  0  0  0
  8 40  1  0  0  0
  9 10  2  0  0  0
  9 41  1  0  0  0
 10 11  1  0  0  0
 10 42  1  0  0  0
 11 12  2  0  0  0
 11 43  1  0  0  0
 13 14  1  0  0  0
 14 15  1  0  0  0
 15 16  1  0  0  0
 15 44  1  0  0  0
 15 45  1  0  0  0
 16 21  1  0  0  0
 16 17  1  0  0  0
 16 46  1  0  0  0
 17 18  1  0  0  0
 17 47  1  0  0  0
 17 48  1  0  0  0
 18 19  1  0  0  0
 18 49  1  0  0  0
 18 50  1  0  0  0
 19 20  1  0  0  0
 19 51  1  0  0  0
 19 52  1  0  0  0
 20 21  1  0  0  0
 20 53  1  0  0  0
 20 54  1  0  0  0
 21 55  1  0  0  0
 21 56  1  0  0  0
 22 30  1  0  0  0
 22 23  2  0  0  0
 23 24  1  0  0  0
 24 25  1  0  0  0
 24 28  2  0  0  0
 25 27  1  0  0  0
 25 26  1  0  0  0
 25 57  1  0  0  0
 26 27  1  0  0  0
 26 58  1  0  0  0
 26 59  1  0  0  0
 27 60  1  0  0  0
 27 61  1  0  0  0
 28 29  1  0  0  0
 28 62  1  0  0  0
 29 30  2  0  0  0
 29 63  1  0  0  0
 30 31  1  0  0  0
 31 32  1  0  0  0
 31 64  1  0  0  0
 32 37  1  0  0  0
 32 33  2  0  0  0
 33 34  1  0  0  0
 33 65  1  0  0  0
 34 35  2  0  0  0
 35 36  1  0  0  0
 35 66  1  0  0  0
 36 37  2  0  0  0
 37 67  1  0  0  0
M  END
> <Tot Q>
0

> <Source File Index>
31

> <i_f3d_flags>
0

> <subgroup collapsed>
0

> <Ionization Penalty>
0.0009

> <State Penalty>
0.0006

> <docking score>
-9.18698

> <glide emodel>
-93.3186

> <glide gscore>
-9.18756

> <tautomer probability>
1

> <Source File>
Sries39080_dock_SP_confgen_100_lib.maegz

> <Source Path>
C:\Users\yujie\Desktop\two_s\data

> <entry id>
35348

> <subgroup title>
a

> <subgroupid>
Sries39080_dock_SP_confgen_100_lib

$$$$
