lig11
                    3D
 Schrodinger Suite 2020-3.
 64 69  0  0  1  0            999 V2000
   15.1997   40.4076  -13.1552 O   0  0  0  0  0  0
   15.0503   39.4631  -13.9306 C   0  0  0  0  0  0
   13.9370   38.6866  -13.9495 N   0  0  0  0  0  0
   12.8604   38.7349  -13.0700 C   0  0  0  0  0  0
   12.2541   37.6656  -12.4199 C   0  0  0  0  0  0
   11.1717   38.1873  -11.6915 C   0  0  0  0  0  0
   10.2598   37.5101  -10.7037 C   0  0  0  0  0  0
   10.5674   36.2528  -10.1693 C   0  0  0  0  0  0
    9.8467   35.7954   -9.0596 C   0  0  0  0  0  0
    8.8142   36.5826   -8.5414 C   0  0  0  0  0  0
    8.5120   37.7877   -9.1706 C   0  0  0  0  0  0
    9.2176   38.2524  -10.2291 N   0  0  0  0  0  0
   11.0792   39.4783  -11.9116 N   0  0  0  0  0  0
   12.0737   39.8285  -12.7409 N   0  0  0  0  0  0
   12.2038   41.2565  -13.1073 C   0  0  0  0  0  0
   10.8234   41.8166  -13.5553 C   0  0  0  0  0  0
   10.8446   43.3413  -13.7658 C   0  0  0  0  0  0
   11.4055   44.0950  -12.5473 C   0  0  0  0  0  0
   12.7841   43.5549  -12.1265 C   0  0  0  0  0  0
   12.7331   42.0369  -11.8710 C   0  0  0  0  0  0
   16.1397   39.1113  -14.9437 C   0  0  0  0  0  0
   16.0203   37.8785  -15.5220 N   0  0  0  0  0  0
   16.9550   37.4549  -16.4049 C   0  0  0  0  0  0
   16.7762   36.0743  -17.0130 C   0  0  0  0  0  0
   16.4188   34.8599  -16.1787 C   0  0  0  0  0  0
   15.4482   35.4005  -17.1937 C   0  0  0  0  0  0
   18.0440   38.2392  -16.7685 C   0  0  0  0  0  0
   18.1622   39.5088  -16.2127 C   0  0  0  0  0  0
   17.2343   39.9675  -15.2634 C   0  0  0  0  0  0
   17.3677   41.2641  -14.7180 N   0  0  0  0  0  0
   18.3963   42.2257  -14.7473 C   0  0  0  0  0  0
   19.7633   41.9404  -14.9118 C   0  0  0  0  0  0
   20.7229   42.9084  -14.9637 N   0  0  0  0  0  0
   20.2827   44.1869  -14.8194 C   0  0  0  0  0  0
   18.9968   44.5728  -14.6121 N   0  0  0  0  0  0
   18.0728   43.5750  -14.5708 C   0  0  0  0  0  0
   13.9386   37.9127  -14.5972 H   0  0  0  0  0  0
   12.5769   36.6371  -12.4449 H   0  0  0  0  0  0
   11.4142   35.6974  -10.5453 H   0  0  0  0  0  0
   10.0914   34.8630   -8.5716 H   0  0  0  0  0  0
    8.2518   36.2514   -7.6809 H   0  0  0  0  0  0
    7.7086   38.4143   -8.8148 H   0  0  0  0  0  0
   12.9062   41.2808  -13.9375 H   0  0  0  0  0  0
   10.5674   41.3552  -14.5080 H   0  0  0  0  0  0
   10.0147   41.5421  -12.8747 H   0  0  0  0  0  0
   11.4480   43.5833  -14.6397 H   0  0  0  0  0  0
    9.8329   43.6896  -13.9751 H   0  0  0  0  0  0
   11.4760   45.1607  -12.7706 H   0  0  0  0  0  0
   10.7102   44.0049  -11.7119 H   0  0  0  0  0  0
   13.5120   43.7688  -12.9104 H   0  0  0  0  0  0
   13.1312   44.0751  -11.2320 H   0  0  0  0  0  0
   12.1583   41.8073  -10.9716 H   0  0  0  0  0  0
   13.7508   41.7282  -11.6463 H   0  0  0  0  0  0
   17.4481   35.9071  -17.8521 H   0  0  0  0  0  0
   16.9397   33.9222  -16.3713 H   0  0  0  0  0  0
   16.1351   34.9802  -15.1366 H   0  0  0  0  0  0
   14.5851   35.9385  -16.8303 H   0  0  0  0  0  0
   15.2539   34.8478  -18.1132 H   0  0  0  0  0  0
   18.7667   37.8864  -17.4910 H   0  0  0  0  0  0
   18.9645   40.1329  -16.5709 H   0  0  0  0  0  0
   16.5502   41.5421  -14.1864 H   0  0  0  0  0  0
   20.1171   40.9236  -14.9626 H   0  0  0  0  0  0
   21.0172   44.9825  -14.8495 H   0  0  0  0  0  0
   17.0499   43.8820  -14.4117 H   0  0  0  0  0  0
  1  2  2  0  0  0
  2  3  1  0  0  0
  2 21  1  0  0  0
  3  4  1  0  0  0
  3 37  1  0  0  0
  4 14  1  0  0  0
  4  5  2  0  0  0
  5  6  1  0  0  0
  5 38  1  0  0  0
  6  7  1  0  0  0
  6 13  2  0  0  0
  7 12  1  0  0  0
  7  8  2  0  0  0
  8  9  1  0  0  0
  8 39  1  0  0  0
  9 10  2  0  0  0
  9 40  1  0  0  0
 10 11  1  0  0  0
 10 41  1  0  0  0
 11 12  2  0  0  0
 11 42  1  0  0  0
 13 14  1  0  0  0
 14 15  1  0  0  0
 15 20  1  0  0  0
 15 16  1  0  0  0
 15 43  1  0  0  0
 16 17  1  0  0  0
 16 44  1  0  0  0
 16 45  1  0  0  0
 17 18  1  0  0  0
 17 46  1  0  0  0
 17 47  1  0  0  0
 18 19  1  0  0  0
 18 48  1  0  0  0
 18 49  1  0  0  0
 19 20  1  0  0  0
 19 50  1  0  0  0
 19 51  1  0  0  0
 20 52  1  0  0  0
 20 53  1  0  0  0
 21 29  1  0  0  0
 21 22  2  0  0  0
 22 23  1  0  0  0
 23 24  1  0  0  0
 23 27  2  0  0  0
 24 26  1  0  0  0
 24 25  1  0  0  0
 24 54  1  0  0  0
 25 26  1  0  0  0
 25 55  1  0  0  0
 25 56  1  0  0  0
 26 57  1  0  0  0
 26 58  1  0  0  0
 27 28  1  0  0  0
 27 59  1  0  0  0
 28 29  2  0  0  0
 28 60  1  0  0  0
 29 30  1  0  0  0
 30 31  1  0  0  0
 30 61  1  0  0  0
 31 36  1  0  0  0
 31 32  2  0  0  0
 32 33  1  0  0  0
 32 62  1  0  0  0
 33 34  2  0  0  0
 34 35  1  0  0  0
 34 63  1  0  0  0
 35 36  2  0  0  0
 36 64  1  0  0  0
M  END
> <s_m_source_file>
/home/user-home/yujie/0_PBCNetv2/data/0_0_high_sim/0_noncov/Sries39080/ligprep_input.csv

> <i_m_source_file_index>
12

> <i_lp_mmshare_version>
51139

> <i_f3d_flags>
0

> <s_epik_input>
W0NIMl0xW0NIMl1bQ0gyXVtDSDJdW0NIMl1bQ0hdMW4ybmMoLWMzW2NIXVtjSF1bY0hdW2NIXW4zKVtjSF1jMltOSF1DKD1PKWM0bmMoW0NIXTVbQ0gyXVtDSDJdNSlbY0hdW2NIXWM0W05IXWM2W2NIXW5bY0hdbltjSF02

> <s_epik_cmdline>
J2VwaWtfcHl0aG9uJywgJy1waHQnLCAnMi4wJywgJy1waCcsICc3LjQnLCAnLXRuJywgJzgnLCAnLW1hJywgJzIwMCcsICctaW1hZScsICc8aW5maWxlLm1hZT4nLCAnLW9tYWUnLCAnPG91dGZpbGUubWFlPic=

> <r_lp_tautomer_probability>
1

> <r_epik_Ionization_Penalty>
  0.0009

> <r_epik_Ionization_Penalty_Charging>
  0.0000

> <r_epik_Ionization_Penalty_Neutral>
  0.0009

> <r_epik_State_Penalty>
  0.0006

> <r_epik_Charging_Adjusted_Penalty>
0.000574688

> <i_epik_Tot_Q>
0

> <i_epik_Tot_abs_Q>
0

> <s_lp_Force_Field>
OPLS3e

> <r_lp_Energy>
51.6741

> <b_lp_Chiralities_Consistent>
1

> <s_lp_Variant>
lig11-1

> <s_i_glide_gridfile>
Sries39080-001-gridgen

> <i_i_glide_lignum>
13

> <i_i_glide_rotatable_bonds>
8

> <r_i_docking_score>
-6.14226934546384

> <r_i_glide_ligand_efficiency>
-0.170618592929551

> <r_i_glide_ligand_efficiency_sa>
-0.563370180489196

> <r_i_glide_ligand_efficiency_ln>
-1.3400772262398

> <r_i_glide_gscore>
-6.14284403346384

> <r_i_glide_lipo>
-4.19416679689548

> <r_i_glide_hbond>
0

> <r_i_glide_metal>
-0

> <r_i_glide_rewards>
-0.127371592516727

> <r_i_glide_evdw>
-47.2627487182617

> <r_i_glide_ecoul>
-0.529913306236267

> <r_i_glide_erotb>
0.702513010613335

> <r_i_glide_esite>
-0.08119422281645

> <r_i_glide_emodel>
-65.8025887481923

> <r_i_glide_energy>
-47.792662024498

> <r_i_glide_einternal>
3.87653279304504

> <i_i_glide_confnum>
181

> <i_i_glide_posenum>
82

> <r_i_glide_eff_state_penalty>
0.000574688

$$$$
