lig9
                    3D
 Schrodinger Suite 2024-1.
 63 67  0  0  1  0            999 V2000
    7.4677   41.8717  -13.7706 C   0  0  0  0  0  0
    8.9529   41.5193  -13.5357 N   0  3  0  0  0  0
    9.7411   42.7615  -13.0619 C   0  0  0  0  0  0
    9.0786   40.3057  -12.5831 C   0  0  0  0  0  0
   10.5339   39.7853  -12.5190 C   0  0  0  0  0  0
   10.6590   38.5264  -11.7694 N   0  0  0  0  0  0
    9.7858   38.2432  -10.7922 N   0  0  0  0  0  0
   10.1417   37.0811  -10.2894 C   0  0  0  0  0  0
    9.4395   36.5291   -9.0821 C   0  0  0  0  0  0
    8.4219   37.2286   -8.4141 C   0  0  0  0  0  0
    7.8103   36.6455   -7.3032 C   0  0  0  0  0  0
    8.2209   35.3831   -6.8761 C   0  0  0  0  0  0
    9.2427   34.7471   -7.5792 C   0  0  0  0  0  0
    9.8483   35.3017   -8.6589 N   0  0  0  0  0  0
   11.2178   36.5491  -11.0250 C   0  0  0  0  0  0
   11.5673   37.5130  -11.9595 C   0  0  0  0  0  0
   12.5900   37.6071  -12.8868 N   0  0  0  0  0  0
   13.2822   36.5793  -13.4256 C   0  0  0  0  0  0
   13.0488   35.3946  -13.1623 O   0  0  0  0  0  0
   14.3920   36.9734  -14.4022 C   0  0  0  0  0  0
   14.7462   38.2948  -14.3974 N   0  0  0  0  0  0
   15.7806   38.7116  -15.1649 C   0  0  0  0  0  0
   16.1210   40.1902  -15.1093 C   0  0  0  0  0  0
   15.8225   41.0668  -13.9083 C   0  0  0  0  0  0
   17.2524   40.7124  -14.2556 C   0  0  0  0  0  0
   16.5247   37.8401  -15.9561 C   0  0  0  0  0  0
   16.1511   36.4973  -15.9946 C   0  0  0  0  0  0
   15.0491   36.0428  -15.2538 C   0  0  0  0  0  0
   14.6113   34.7055  -15.3276 N   0  0  0  0  0  0
   14.8122   33.6082  -16.1779 C   0  0  0  0  0  0
   15.4953   33.6328  -17.4014 C   0  0  0  0  0  0
   15.6578   32.5236  -18.1698 N   0  0  0  0  0  0
   15.0817   31.3830  -17.7135 C   0  0  0  0  0  0
   14.3618   31.2595  -16.5719 N   0  0  0  0  0  0
   14.2476   32.3800  -15.8150 C   0  0  0  0  0  0
    7.0333   42.1739  -12.8157 H   0  0  0  0  0  0
    7.4324   42.6864  -14.4947 H   0  0  0  0  0  0
    6.9767   40.9824  -14.1686 H   0  0  0  0  0  0
    9.3890   43.0225  -12.0635 H   0  0  0  0  0  0
   10.8031   42.5118  -13.0575 H   0  0  0  0  0  0
    9.5493   43.5676  -13.7698 H   0  0  0  0  0  0
    8.4068   39.5390  -12.9738 H   0  0  0  0  0  0
    8.7071   40.6418  -11.6139 H   0  0  0  0  0  0
   11.1808   40.5012  -12.0118 H   0  0  0  0  0  0
   10.9393   39.6273  -13.5190 H   0  0  0  0  0  0
    8.1048   38.2058   -8.7485 H   0  0  0  0  0  0
    7.0213   37.1651   -6.7789 H   0  0  0  0  0  0
    7.7583   34.9119   -6.0194 H   0  0  0  0  0  0
    9.5987   33.7787   -7.2677 H   0  0  0  0  0  0
   11.7248   35.6113  -10.8576 H   0  0  0  0  0  0
   12.8117   38.5269  -13.2386 H   0  0  0  0  0  0
   15.9960   40.6794  -16.0765 H   0  0  0  0  0  0
   15.4689   42.0816  -14.0829 H   0  0  0  0  0  0
   15.3686   40.6181  -13.0250 H   0  0  0  0  0  0
   17.7955   40.0027  -13.6276 H   0  0  0  0  0  0
   17.9063   41.4757  -14.6798 H   0  0  0  0  0  0
   17.3716   38.1916  -16.5259 H   0  0  0  0  0  0
   16.7599   35.8276  -16.5754 H   0  0  0  0  0  0
   13.9564   34.5113  -14.5801 H   0  0  0  0  0  0
   15.8849   34.5365  -17.8336 H   0  0  0  0  0  0
   15.2062   30.4870  -18.3048 H   0  0  0  0  0  0
   13.6748   32.2708  -14.9067 H   0  0  0  0  0  0
    9.3318   41.2403  -14.4331 H   0  0  0  0  0  0
  1  2  1  0  0  0
  1 36  1  0  0  0
  1 37  1  0  0  0
  1 38  1  0  0  0
  2  3  1  0  0  0
  2  4  1  0  0  0
  2 63  1  0  0  0
  3 39  1  0  0  0
  3 40  1  0  0  0
  3 41  1  0  0  0
  4  5  1  0  0  0
  4 42  1  0  0  0
  4 43  1  0  0  0
  5  6  1  0  0  0
  5 44  1  0  0  0
  5 45  1  0  0  0
  6 16  1  0  0  0
  6  7  1  0  0  0
  7  8  2  0  0  0
  8  9  1  0  0  0
  8 15  1  0  0  0
  9 14  1  0  0  0
  9 10  2  0  0  0
 10 11  1  0  0  0
 10 46  1  0  0  0
 11 12  2  0  0  0
 11 47  1  0  0  0
 12 13  1  0  0  0
 12 48  1  0  0  0
 13 14  2  0  0  0
 13 49  1  0  0  0
 15 16  2  0  0  0
 15 50  1  0  0  0
 16 17  1  0  0  0
 17 18  1  0  0  0
 17 51  1  0  0  0
 18 19  2  0  0  0
 18 20  1  0  0  0
 20 28  1  0  0  0
 20 21  2  0  0  0
 21 22  1  0  0  0
 22 23  1  0  0  0
 22 26  2  0  0  0
 23 25  1  0  0  0
 23 24  1  0  0  0
 23 52  1  0  0  0
 24 25  1  0  0  0
 24 53  1  0  0  0
 24 54  1  0  0  0
 25 55  1  0  0  0
 25 56  1  0  0  0
 26 27  1  0  0  0
 26 57  1  0  0  0
 27 28  2  0  0  0
 27 58  1  0  0  0
 28 29  1  0  0  0
 29 30  1  0  0  0
 29 59  1  0  0  0
 30 35  1  0  0  0
 30 31  2  0  0  0
 31 32  1  0  0  0
 31 60  1  0  0  0
 32 33  2  0  0  0
 33 34  1  0  0  0
 33 61  1  0  0  0
 34 35  2  0  0  0
 35 62  1  0  0  0
M  CHG  1   2   1
M  END
> <Tot Q>
1

> <Source File Index>
8

> <i_f3d_flags>
0

> <subgroup collapsed>
0

> <Ionization Penalty>
0.0671

> <State Penalty>
0.0578

> <docking score>
-9.84871

> <glide emodel>
-95.0602

> <glide gscore>
-9.90648

> <tautomer probability>
1

> <Source File>
Sries39080_dock_SP_confgen_100_lib.maegz

> <Source Path>
C:\Users\yujie\Desktop\two_s\data

> <entry id>
35325

> <subgroup title>
a

> <subgroupid>
Sries39080_dock_SP_confgen_100_lib

$$$$
