lig5
                    3D
 Schrodinger Suite 2024-1.
 51 55  0  0  1  0            999 V2000
   11.4855   39.6932  -12.8275 C   0  0  0  0  0  0
   11.2802   38.4124  -12.1848 N   0  0  0  0  0  0
   10.4129   38.3453  -11.1505 N   0  0  0  0  0  0
   10.4337   37.0821  -10.7272 C   0  0  0  0  0  0
    9.6823   36.6723   -9.5269 C   0  0  0  0  0  0
    8.7465   37.5334   -8.9174 C   0  0  0  0  0  0
    8.0763   37.1113   -7.7595 C   0  0  0  0  0  0
    8.3757   35.8431   -7.2390 C   0  0  0  0  0  0
    9.3112   35.0435   -7.9127 C   0  0  0  0  0  0
    9.9694   35.4467   -9.0189 N   0  0  0  0  0  0
   11.2760   36.2770  -11.5435 C   0  0  0  0  0  0
   11.8051   37.1570  -12.4287 C   0  0  0  0  0  0
   12.6695   36.7734  -13.3933 N   0  0  0  0  0  0
   13.8169   37.3357  -13.7817 C   0  0  0  0  0  0
   14.1932   38.4569  -13.4202 O   0  0  0  0  0  0
   14.6045   36.4769  -14.7627 C   0  0  0  0  0  0
   14.1222   35.2158  -14.9586 N   0  0  0  0  0  0
   14.6643   34.4421  -15.9190 C   0  0  0  0  0  0
   14.0066   33.1195  -16.1760 C   0  0  0  0  0  0
   14.8685   31.8960  -16.3983 C   0  0  0  0  0  0
   14.0026   32.0007  -15.1667 C   0  0  0  0  0  0
   15.7348   34.8717  -16.7118 C   0  0  0  0  0  0
   16.2780   36.1395  -16.4839 C   0  0  0  0  0  0
   15.7439   36.9763  -15.4800 C   0  0  0  0  0  0
   16.2674   38.2636  -15.2168 N   0  0  0  0  0  0
   17.3373   38.9874  -15.7701 C   0  0  0  0  0  0
   17.2818   40.3939  -15.7740 C   0  0  0  0  0  0
   18.2800   41.1453  -16.2699 N   0  0  0  0  0  0
   19.2579   40.4809  -16.8505 C   0  0  0  0  0  0
   19.5070   39.1813  -16.8249 N   0  0  0  0  0  0
   18.5331   38.4321  -16.2655 C   0  0  0  0  0  0
   12.1693   40.2919  -12.2262 H   0  0  0  0  0  0
   11.9097   39.5631  -13.8191 H   0  0  0  0  0  0
   10.5331   40.2164  -12.9206 H   0  0  0  0  0  0
    8.5406   38.5005   -9.3548 H   0  0  0  0  0  0
    7.3465   37.7473   -7.2802 H   0  0  0  0  0  0
    7.8751   35.4716   -6.3560 H   0  0  0  0  0  0
    9.5576   34.0606   -7.5396 H   0  0  0  0  0  0
   11.4914   35.2331  -11.4709 H   0  0  0  0  0  0
   12.5578   35.8581  -13.8074 H   0  0  0  0  0  0
   13.1159   33.2347  -16.7905 H   0  0  0  0  0  0
   14.5557   31.1840  -17.1600 H   0  0  0  0  0  0
   15.9440   31.9829  -16.2530 H   0  0  0  0  0  0
   14.4581   32.2006  -14.2015 H   0  0  0  0  0  0
   13.1551   31.3218  -15.1439 H   0  0  0  0  0  0
   16.1338   34.2324  -17.4854 H   0  0  0  0  0  0
   17.0816   36.4563  -17.1232 H   0  0  0  0  0  0
   15.6660   38.7754  -14.5633 H   0  0  0  0  0  0
   16.4341   40.9220  -15.3616 H   0  0  0  0  0  0
   20.0891   41.0882  -17.1757 H   0  0  0  0  0  0
   18.7297   37.3740  -16.2094 H   0  0  0  0  0  0
  1  2  1  0  0  0
  1 32  1  0  0  0
  1 33  1  0  0  0
  1 34  1  0  0  0
  2 12  1  0  0  0
  2  3  1  0  0  0
  3  4  2  0  0  0
  4  5  1  0  0  0
  4 11  1  0  0  0
  5 10  1  0  0  0
  5  6  2  0  0  0
  6  7  1  0  0  0
  6 35  1  0  0  0
  7  8  2  0  0  0
  7 36  1  0  0  0
  8  9  1  0  0  0
  8 37  1  0  0  0
  9 10  2  0  0  0
  9 38  1  0  0  0
 11 12  2  0  0  0
 11 39  1  0  0  0
 12 13  1  0  0  0
 13 14  1  0  0  0
 13 40  1  0  0  0
 14 15  2  0  0  0
 14 16  1  0  0  0
 16 24  1  0  0  0
 16 17  2  0  0  0
 17 18  1  0  0  0
 18 19  1  0  0  0
 18 22  2  0  0  0
 19 21  1  0  0  0
 19 20  1  0  0  0
 19 41  1  0  0  0
 20 21  1  0  0  0
 20 42  1  0  0  0
 20 43  1  0  0  0
 21 44  1  0  0  0
 21 45  1  0  0  0
 22 23  1  0  0  0
 22 46  1  0  0  0
 23 24  2  0  0  0
 23 47  1  0  0  0
 24 25  1  0  0  0
 25 26  1  0  0  0
 25 48  1  0  0  0
 26 31  1  0  0  0
 26 27  2  0  0  0
 27 28  1  0  0  0
 27 49  1  0  0  0
 28 29  2  0  0  0
 29 30  1  0  0  0
 29 50  1  0  0  0
 30 31  2  0  0  0
 31 51  1  0  0  0
M  END
> <Tot Q>
0

> <Source File Index>
1

> <i_f3d_flags>
0

> <Ionization Penalty>
0.0009

> <State Penalty>
0.0006

> <docking score>
-8.27289

> <glide emodel>
-79.351

> <glide gscore>
-8.27347

> <tautomer probability>
1

> <Source File>
lig5.sdf

> <Source Path>
C:\Users\yujie\Desktop\two_s\data

> <entry id>
35310

$$$$
