lig23
                    3D
 Schrodinger Suite 2020-3.
 57 61  0  0  1  0            999 V2000
   12.3542   40.4497  -12.1001 C   0  0  0  0  0  0
   11.4584   39.4903  -12.9075 C   0  0  0  0  0  0
   10.1167   40.1599  -13.2803 C   0  0  0  0  0  0
   11.2452   38.2306  -12.1721 N   0  0  0  0  0  0
   10.4048   38.2178  -11.1162 N   0  0  0  0  0  0
   10.3893   36.9896  -10.6436 C   0  0  0  0  0  0
    9.5894   36.6127   -9.4265 C   0  0  0  0  0  0
    8.6509   37.4783   -8.8465 C   0  0  0  0  0  0
    7.9745   37.0735   -7.6937 C   0  0  0  0  0  0
    8.2435   35.8205   -7.1405 C   0  0  0  0  0  0
    9.1835   35.0061   -7.7709 C   0  0  0  0  0  0
    9.8483   35.3833   -8.8949 N   0  0  0  0  0  0
   11.2121   36.1824  -11.4401 C   0  0  0  0  0  0
   11.8090   36.9845  -12.3805 C   0  0  0  0  0  0
   12.6462   36.5498  -13.3876 N   0  0  0  0  0  0
   13.8341   37.0647  -13.7696 C   0  0  0  0  0  0
   14.2481   38.1527  -13.3699 O   0  0  0  0  0  0
   14.6259   36.2153  -14.7706 C   0  0  0  0  0  0
   14.0912   34.9824  -15.0387 N   0  0  0  0  0  0
   14.6961   34.1651  -15.9311 C   0  0  0  0  0  0
   14.0154   32.8339  -16.1905 C   0  0  0  0  0  0
   14.7955   31.5434  -16.3083 C   0  0  0  0  0  0
   13.8967   31.7826  -15.1132 C   0  0  0  0  0  0
   15.8923   34.4994  -16.5552 C   0  0  0  0  0  0
   16.4779   35.7228  -16.2435 C   0  0  0  0  0  0
   15.8451   36.6293  -15.3780 C   0  0  0  0  0  0
   16.4316   37.8771  -15.0800 N   0  0  0  0  0  0
   17.4796   38.6453  -15.6187 C   0  0  0  0  0  0
   17.9279   39.7600  -14.8971 C   0  0  0  0  0  0
   18.8815   40.6118  -15.3592 N   0  0  0  0  0  0
   19.3944   40.3193  -16.5822 C   0  0  0  0  0  0
   19.0482   39.2660  -17.3670 N   0  0  0  0  0  0
   18.0886   38.4441  -16.8692 C   0  0  0  0  0  0
   12.6682   41.2979  -12.7110 H   0  0  0  0  0  0
   11.8258   40.8546  -11.2381 H   0  0  0  0  0  0
   13.2571   39.9557  -11.7378 H   0  0  0  0  0  0
   11.9705   39.2403  -13.8336 H   0  0  0  0  0  0
   10.2696   41.0000  -13.9582 H   0  0  0  0  0  0
    9.4493   39.4541  -13.7696 H   0  0  0  0  0  0
    9.5950   40.5395  -12.3994 H   0  0  0  0  0  0
    8.4503   38.4487   -9.2779 H   0  0  0  0  0  0
    7.2463   37.7255   -7.2323 H   0  0  0  0  0  0
    7.7286   35.4867   -6.2513 H   0  0  0  0  0  0
    9.4148   34.0292   -7.3722 H   0  0  0  0  0  0
   11.3800   35.1236  -11.3693 H   0  0  0  0  0  0
   12.3599   35.7055  -13.8571 H   0  0  0  0  0  0
   13.1471   32.9309  -16.8459 H   0  0  0  0  0  0
   14.4924   30.8197  -17.0669 H   0  0  0  0  0  0
   15.8776   31.5642  -16.1700 H   0  0  0  0  0  0
   14.3395   31.9821  -14.1371 H   0  0  0  0  0  0
   12.9807   31.1997  -15.0339 H   0  0  0  0  0  0
   16.3774   33.8146  -17.2341 H   0  0  0  0  0  0
   17.4480   35.9216  -16.6572 H   0  0  0  0  0  0
   15.9438   38.3364  -14.3182 H   0  0  0  0  0  0
   17.5048   40.0025  -13.9326 H   0  0  0  0  0  0
   20.0967   41.0179  -17.0085 H   0  0  0  0  0  0
   17.7709   37.6802  -17.5578 H   0  0  0  0  0  0
  1  2  1  0  0  0
  1 34  1  0  0  0
  1 35  1  0  0  0
  1 36  1  0  0  0
  2  3  1  0  0  0
  2  4  1  0  0  0
  2 37  1  0  0  0
  3 38  1  0  0  0
  3 39  1  0  0  0
  3 40  1  0  0  0
  4 14  1  0  0  0
  4  5  1  0  0  0
  5  6  2  0  0  0
  6  7  1  0  0  0
  6 13  1  0  0  0
  7 12  1  0  0  0
  7  8  2  0  0  0
  8  9  1  0  0  0
  8 41  1  0  0  0
  9 10  2  0  0  0
  9 42  1  0  0  0
 10 11  1  0  0  0
 10 43  1  0  0  0
 11 12  2  0  0  0
 11 44  1  0  0  0
 13 14  2  0  0  0
 13 45  1  0  0  0
 14 15  1  0  0  0
 15 16  1  0  0  0
 15 46  1  0  0  0
 16 17  2  0  0  0
 16 18  1  0  0  0
 18 26  1  0  0  0
 18 19  2  0  0  0
 19 20  1  0  0  0
 20 21  1  0  0  0
 20 24  2  0  0  0
 21 23  1  0  0  0
 21 22  1  0  0  0
 21 47  1  0  0  0
 22 23  1  0  0  0
 22 48  1  0  0  0
 22 49  1  0  0  0
 23 50  1  0  0  0
 23 51  1  0  0  0
 24 25  1  0  0  0
 24 52  1  0  0  0
 25 26  2  0  0  0
 25 53  1  0  0  0
 26 27  1  0  0  0
 27 28  1  0  0  0
 27 54  1  0  0  0
 28 33  1  0  0  0
 28 29  2  0  0  0
 29 30  1  0  0  0
 29 55  1  0  0  0
 30 31  2  0  0  0
 31 32  1  0  0  0
 31 56  1  0  0  0
 32 33  2  0  0  0
 33 57  1  0  0  0
M  END
> <s_m_source_file>
/home/user-home/yujie/0_PBCNetv2/data/0_0_high_sim/0_noncov/Sries39080/ligprep_input.csv

> <i_m_source_file_index>
24

> <i_lp_mmshare_version>
51139

> <i_f3d_flags>
0

> <s_epik_input>
bjFbY0hdW2NIXVtjSF1bY0hdYzEtYyhubjJbQ0hdKFtDSDNdKVtDSDNdKVtjSF1jMltOSF1DKD1PKWMzbmMoW0NIXTRbQ0gyXVtDSDJdNClbY0hdW2NIXWMzW05IXWM1W2NIXW5bY0hdbltjSF01

> <s_epik_cmdline>
J2VwaWtfcHl0aG9uJywgJy1waHQnLCAnMi4wJywgJy1waCcsICc3LjQnLCAnLXRuJywgJzgnLCAnLW1hJywgJzIwMCcsICctaW1hZScsICc8aW5maWxlLm1hZT4nLCAnLW9tYWUnLCAnPG91dGZpbGUubWFlPic=

> <r_lp_tautomer_probability>
1

> <r_epik_Ionization_Penalty>
  0.0009

> <r_epik_Ionization_Penalty_Charging>
  0.0000

> <r_epik_Ionization_Penalty_Neutral>
  0.0009

> <r_epik_State_Penalty>
  0.0006

> <r_epik_Charging_Adjusted_Penalty>
0.000574688

> <i_epik_Tot_Q>
0

> <i_epik_Tot_abs_Q>
0

> <s_lp_Force_Field>
OPLS3e

> <r_lp_Energy>
58.0826

> <b_lp_Chiralities_Consistent>
1

> <s_lp_Variant>
lig23-1

> <s_i_glide_gridfile>
Sries39080-001-gridgen

> <i_i_glide_lignum>
26

> <i_i_glide_rotatable_bonds>
8

> <r_i_docking_score>
-8.17390577935737

> <r_i_glide_ligand_efficiency>
-0.247694114525981

> <r_i_glide_ligand_efficiency_sa>
-0.794487374754025

> <r_i_glide_ligand_efficiency_ln>
-1.81783432310999

> <r_i_glide_gscore>
-8.17448046735737

> <r_i_glide_lipo>
-5.05685513847484

> <r_i_glide_hbond>
-0.32

> <r_i_glide_metal>
-0

> <r_i_glide_rewards>
-0.513702356441309

> <r_i_glide_evdw>
-54.3158912658691

> <r_i_glide_ecoul>
-1.84735321998596

> <r_i_glide_erotb>
0.720314022156751

> <r_i_glide_esite>
-0.011339448306626

> <r_i_glide_emodel>
-79.5862117995921

> <r_i_glide_energy>
-56.1632444858551

> <r_i_glide_einternal>
4.34592247009277

> <i_i_glide_confnum>
40

> <i_i_glide_posenum>
51

> <r_i_glide_eff_state_penalty>
0.000574688

$$$$
