lig5
                    3D
 Schrodinger Suite 2020-3.
 42 44  0  0  1  0            999 V2000
   15.9093   16.1130   13.1598 C   0  0  0  0  0  0
   15.5096   15.6449   11.8283 N   0  0  2  0  0  0
   13.9772   14.8356   11.5781 S   0  0  0  0  0  0
   13.8798   14.4710   10.1610 O   0  0  0  0  0  0
   13.8235   13.8234   12.6279 O   0  0  0  0  0  0
   12.7532   16.1029   11.8517 C   0  0  0  0  0  0
   11.6812   15.8550   12.7061 C   0  0  0  0  0  0
   10.7083   16.8274   12.9013 C   0  0  0  0  0  0
   10.8156   18.0593   12.2622 C   0  0  0  0  0  0
   11.9018   18.3377   11.4287 C   0  0  0  0  0  0
   11.9555   19.6321   10.8917 N   0  0  0  0  0  0
   12.8146   20.3131   10.0218 C   0  0  0  0  0  0
   12.4682   21.6268    9.7129 C   0  0  0  0  0  0
   13.2559   22.3089    8.7806 C   0  0  0  0  0  0
   12.9877   23.6285    8.3945 N   0  0  0  0  0  0
   12.0333   24.5338    8.8776 C   0  0  0  0  0  0
   12.4587   25.8250    9.1863 C   0  0  0  0  0  0
   11.5552   26.7617    9.6817 C   0  0  0  0  0  0
   10.2199   26.4022    9.8576 C   0  0  0  0  0  0
    9.7810   25.1198    9.5349 C   0  0  0  0  0  0
   10.6864   24.1878    9.0309 C   0  0  0  0  0  0
   14.3531   21.7346    8.2255 N   0  0  0  0  0  0
   14.6345   20.4628    8.6093 C   0  0  0  0  0  0
   13.9088   19.7152    9.4789 N   0  0  0  0  0  0
   12.8662   17.3429   11.2113 C   0  0  0  0  0  0
   16.8788   16.6068   13.0799 H   0  0  0  0  0  0
   16.0165   15.2576   13.8287 H   0  0  0  0  0  0
   15.1778   16.8229   13.5494 H   0  0  0  0  0  0
   15.9581   16.0730   11.0061 H   0  0  0  0  0  0
   11.5692   14.8993   13.1965 H   0  0  0  0  0  0
    9.8672   16.6209   13.5467 H   0  0  0  0  0  0
   10.0535   18.8050   12.4381 H   0  0  0  0  0  0
   11.1830   20.2083   11.1895 H   0  0  0  0  0  0
   11.6145   22.0836   10.1837 H   0  0  0  0  0  0
   13.6558   24.0244    7.7457 H   0  0  0  0  0  0
   13.4970   26.0943    9.0594 H   0  0  0  0  0  0
   11.8890   27.7582    9.9331 H   0  0  0  0  0  0
    9.5190   27.1252   10.2482 H   0  0  0  0  0  0
    8.7458   24.8497    9.6793 H   0  0  0  0  0  0
   10.3342   23.2045    8.7581 H   0  0  0  0  0  0
   15.5089   20.0001    8.1742 H   0  0  0  0  0  0
   13.7111   17.5152   10.5648 H   0  0  0  0  0  0
  1  2  1  0  0  0
  1 26  1  0  0  0
  1 27  1  0  0  0
  1 28  1  0  0  0
  2  3  1  0  0  0
  2 29  1  0  0  0
  3  4  2  0  0  0
  3  5  2  0  0  0
  3  6  1  0  0  0
  6 25  1  0  0  0
  6  7  2  0  0  0
  7  8  1  0  0  0
  7 30  1  0  0  0
  8  9  2  0  0  0
  8 31  1  0  0  0
  9 10  1  0  0  0
  9 32  1  0  0  0
 10 11  1  0  0  0
 10 25  2  0  0  0
 11 12  1  0  0  0
 11 33  1  0  0  0
 12 24  1  0  0  0
 12 13  2  0  0  0
 13 14  1  0  0  0
 13 34  1  0  0  0
 14 15  1  0  0  0
 14 22  2  0  0  0
 15 16  1  0  0  0
 15 35  1  0  0  0
 16 21  1  0  0  0
 16 17  2  0  0  0
 17 18  1  0  0  0
 17 36  1  0  0  0
 18 19  2  0  0  0
 18 37  1  0  0  0
 19 20  1  0  0  0
 19 38  1  0  0  0
 20 21  2  0  0  0
 20 39  1  0  0  0
 21 40  1  0  0  0
 22 23  1  0  0  0
 23 24  2  0  0  0
 23 41  1  0  0  0
 25 42  1  0  0  0
M  END
> <s_m_source_file>
/home/user-home/yujie/0_PBCNetv2/data/0_0_high_sim/0_noncov/Sries46192/ligprep_input.csv

> <i_m_source_file_index>
6

> <i_lp_mmshare_version>
51139

> <i_f3d_flags>
0

> <s_epik_input>
W0NIM11bTkhdUyg9TykoPU8pYzFbY0hdW2NIXVtjSF1jKFtjSF0xKVtOSF1jMltjSF1jKG5bY0hdbjIpW05IXWMzW2NIXVtjSF1bY0hdW2NIXVtjSF0z

> <s_epik_cmdline>
J2VwaWtfcHl0aG9uJywgJy1waHQnLCAnMi4wJywgJy1waCcsICc3LjQnLCAnLXRuJywgJzgnLCAnLW1hJywgJzIwMCcsICctaW1hZScsICc8aW5maWxlLm1hZT4nLCAnLW9tYWUnLCAnPG91dGZpbGUubWFlPic=

> <r_lp_tautomer_probability>
1

> <r_epik_Ionization_Penalty>
  0.0001

> <r_epik_Ionization_Penalty_Charging>
  0.0000

> <r_epik_Ionization_Penalty_Neutral>
  0.0001

> <r_epik_State_Penalty>
 -0.0000

> <r_epik_Charging_Adjusted_Penalty>
0

> <i_epik_Tot_Q>
0

> <i_epik_Tot_abs_Q>
0

> <s_lp_Force_Field>
OPLS3e

> <r_lp_Energy>
34.0646

> <b_lp_Chiralities_Consistent>
1

> <s_lp_Variant>
lig5-1

> <s_i_glide_gridfile>
Sries38428-001-gridgen

> <i_i_glide_lignum>
8

> <i_i_glide_rotatable_bonds>
6

> <r_i_docking_score>
-8.83835796666615

> <r_i_glide_ligand_efficiency>
-0.353534318666646

> <r_i_glide_ligand_efficiency_sa>
-1.03374061773911

> <r_i_glide_ligand_efficiency_ln>
-2.09495570231491

> <r_i_glide_gscore>
-8.83835796666615

> <r_i_glide_lipo>
-3.25724343641493

> <r_i_glide_hbond>
-0.714253618848882

> <r_i_glide_metal>
-0

> <r_i_glide_rewards>
-1.84541737121461

> <r_i_glide_evdw>
-45.5296325683594

> <r_i_glide_ecoul>
-8.49823951721191

> <r_i_glide_erotb>
0.529774015812029

> <r_i_glide_esite>
0

> <r_i_glide_emodel>
-76.628660309948

> <r_i_glide_energy>
-54.0278720855713

> <r_i_glide_einternal>
8.9484748840332

> <i_i_glide_confnum>
8

> <i_i_glide_posenum>
2

> <r_i_glide_eff_state_penalty>
-0

$$$$
