lig2
                    3D
 Schrodinger Suite 2020-3.
 45 47  0  0  1  0            999 V2000
   15.8214   16.1102   13.1718 C   0  0  0  0  0  0
   15.3898   15.7035   11.8285 N   0  0  2  0  0  0
   13.8189   14.9628   11.5577 S   0  0  0  0  0  0
   13.6249   13.9323   12.5832 O   0  0  0  0  0  0
   13.7142   14.6317   10.1317 O   0  0  0  0  0  0
   12.6213   16.2587   11.8472 C   0  0  0  0  0  0
   11.5155   16.0270   12.6671 C   0  0  0  0  0  0
   10.5553   17.0177   12.8517 C   0  0  0  0  0  0
   10.7086   18.2527   12.2325 C   0  0  0  0  0  0
   11.8211   18.5095   11.4284 C   0  0  0  0  0  0
   11.9063   19.8004   10.8993 N   0  0  0  0  0  0
   12.7743   20.4600   10.0279 C   0  0  0  0  0  0
   12.4179   21.7645    9.7057 C   0  0  0  0  0  0
   13.2017   22.4403    8.7678 C   0  0  0  0  0  0
   12.9145   23.7500    8.3678 N   0  0  0  0  0  0
   11.9359   24.6470    8.8212 C   0  0  0  0  0  0
   10.6034   24.2712    9.0301 C   0  0  0  0  0  0
    9.6749   25.1967    9.5086 C   0  0  0  0  0  0
   10.0651   26.5120    9.7523 C   0  0  0  0  0  0
   11.3826   26.9078    9.5104 C   0  0  0  0  0  0
   11.8182   28.3344    9.7902 C   0  0  0  0  0  0
   12.3096   25.9728    9.0426 C   0  0  0  0  0  0
   14.3096   21.8694    8.2271 N   0  0  0  0  0  0
   14.6004   20.6032    8.6274 C   0  0  0  0  0  0
   13.8755   19.8598    9.5011 N   0  0  0  0  0  0
   12.7738   17.5016   11.2248 C   0  0  0  0  0  0
   16.8056   16.5771   13.0998 H   0  0  0  0  0  0
   15.1175   16.8272   13.5980 H   0  0  0  0  0  0
   15.9091   15.2300   13.8105 H   0  0  0  0  0  0
   15.8438   16.1530   11.0234 H   0  0  0  0  0  0
   11.3815   15.0696   13.1477 H   0  0  0  0  0  0
    9.6917   16.8247   13.4734 H   0  0  0  0  0  0
    9.9588   19.0145   12.3953 H   0  0  0  0  0  0
   11.1372   20.3885   11.1807 H   0  0  0  0  0  0
   11.5628   22.2193   10.1779 H   0  0  0  0  0  0
   13.5646   24.1388    7.6949 H   0  0  0  0  0  0
   10.2763   23.2664    8.8116 H   0  0  0  0  0  0
    8.6532   24.8969    9.6909 H   0  0  0  0  0  0
    9.3423   27.2213   10.1286 H   0  0  0  0  0  0
   11.2037   28.7904   10.5668 H   0  0  0  0  0  0
   11.7523   28.9395    8.8859 H   0  0  0  0  0  0
   12.8470   28.3588   10.1532 H   0  0  0  0  0  0
   13.3330   26.2737    8.8719 H   0  0  0  0  0  0
   15.4795   20.1361    8.2020 H   0  0  0  0  0  0
   13.6358   17.6642   10.5990 H   0  0  0  0  0  0
  1  2  1  0  0  0
  1 27  1  0  0  0
  1 28  1  0  0  0
  1 29  1  0  0  0
  2  3  1  0  0  0
  2 30  1  0  0  0
  3  4  2  0  0  0
  3  5  2  0  0  0
  3  6  1  0  0  0
  6 26  1  0  0  0
  6  7  2  0  0  0
  7  8  1  0  0  0
  7 31  1  0  0  0
  8  9  2  0  0  0
  8 32  1  0  0  0
  9 10  1  0  0  0
  9 33  1  0  0  0
 10 11  1  0  0  0
 10 26  2  0  0  0
 11 12  1  0  0  0
 11 34  1  0  0  0
 12 25  1  0  0  0
 12 13  2  0  0  0
 13 14  1  0  0  0
 13 35  1  0  0  0
 14 15  1  0  0  0
 14 23  2  0  0  0
 15 16  1  0  0  0
 15 36  1  0  0  0
 16 22  1  0  0  0
 16 17  2  0  0  0
 17 18  1  0  0  0
 17 37  1  0  0  0
 18 19  2  0  0  0
 18 38  1  0  0  0
 19 20  1  0  0  0
 19 39  1  0  0  0
 20 21  1  0  0  0
 20 22  2  0  0  0
 21 40  1  0  0  0
 21 41  1  0  0  0
 21 42  1  0  0  0
 22 43  1  0  0  0
 23 24  1  0  0  0
 24 25  2  0  0  0
 24 44  1  0  0  0
 26 45  1  0  0  0
M  END
> <s_m_source_file>
/home/user-home/yujie/0_PBCNetv2/data/0_0_high_sim/0_noncov/Sries46192/ligprep_input.csv

> <i_m_source_file_index>
3

> <i_lp_mmshare_version>
51139

> <i_f3d_flags>
0

> <s_epik_input>
W0NIM11bTkhdUyg9TykoPU8pYzFbY0hdW2NIXVtjSF1jKFtjSF0xKVtOSF1jMltjSF1jKG5bY0hdbjIpW05IXWMzW2NIXVtjSF1bY0hdYyhbQ0gzXSlbY0hdMw==

> <s_epik_cmdline>
J2VwaWtfcHl0aG9uJywgJy1waHQnLCAnMi4wJywgJy1waCcsICc3LjQnLCAnLXRuJywgJzgnLCAnLW1hJywgJzIwMCcsICctaW1hZScsICc8aW5maWxlLm1hZT4nLCAnLW9tYWUnLCAnPG91dGZpbGUubWFlPic=

> <r_lp_tautomer_probability>
1

> <r_epik_Ionization_Penalty>
  0.0001

> <r_epik_Ionization_Penalty_Charging>
  0.0000

> <r_epik_Ionization_Penalty_Neutral>
  0.0001

> <r_epik_State_Penalty>
 -0.0000

> <r_epik_Charging_Adjusted_Penalty>
0

> <i_epik_Tot_Q>
0

> <i_epik_Tot_abs_Q>
0

> <s_lp_Force_Field>
OPLS3e

> <r_lp_Energy>
31.6423

> <b_lp_Chiralities_Consistent>
1

> <s_lp_Variant>
lig2-1

> <s_i_glide_gridfile>
Sries38428-001-gridgen

> <i_i_glide_lignum>
4

> <i_i_glide_rotatable_bonds>
6

> <r_i_docking_score>
-8.75785031788977

> <r_i_glide_ligand_efficiency>
-0.336840396841914

> <r_i_glide_ligand_efficiency_sa>
-0.997888350241211

> <r_i_glide_ligand_efficiency_ln>
-2.05675241030564

> <r_i_glide_gscore>
-8.75785031788977

> <r_i_glide_lipo>
-3.09050062613079

> <r_i_glide_hbond>
-0.754303873638719

> <r_i_glide_metal>
-0

> <r_i_glide_rewards>
-1.7535709715447

> <r_i_glide_evdw>
-45.8838500976562

> <r_i_glide_ecoul>
-9.0647611618042

> <r_i_glide_erotb>
0.494431832577878

> <r_i_glide_esite>
0

> <r_i_glide_emodel>
-76.0472670185945

> <r_i_glide_energy>
-54.9486112594604

> <r_i_glide_einternal>
7.59335088729858

> <i_i_glide_confnum>
43

> <i_i_glide_posenum>
124

> <r_i_glide_eff_state_penalty>
-0

$$$$
