lig10
                    3D
 Schrodinger Suite 2024-1.
 46 48  0  0  1  0            999 V2000
    8.2982   22.2948   10.6579 C   0  0  0  0  0  0
    8.7754   23.4588   11.4287 N   0  0  1  0  0  0
    8.8372   25.1074   10.8077 S   0  0  0  0  0  0
    7.9094   25.2272    9.6871 O   0  0  0  0  0  0
    8.7755   26.0213   11.9530 O   0  0  0  0  0  0
   10.4179   25.3503   10.0496 C   0  0  0  0  0  0
   10.9098   26.6526    9.9461 C   0  0  0  0  0  0
   12.0692   26.8943    9.2190 C   0  0  0  0  0  0
   12.7438   25.8290    8.6287 C   0  0  0  0  0  0
   12.3037   24.5162    8.7904 C   0  0  0  0  0  0
   13.0835   23.4997    8.2287 N   0  0  0  0  0  0
   13.3830   22.1914    8.6239 C   0  0  0  0  0  0
   12.7651   21.5142    9.6851 C   0  0  0  0  0  0
   13.1578   20.1944    9.9281 C   0  0  0  0  0  0
   12.4540   19.4814   10.9084 N   0  0  0  0  0  0
   12.4957   18.1547   11.3678 C   0  0  0  0  0  0
   11.3814   17.7035   12.0777 C   0  0  0  0  0  0
   11.3630   16.4272   12.6286 C   0  0  0  0  0  0
   12.4548   15.5825   12.4576 C   0  0  0  0  0  0
   13.5859   16.0080   11.7448 C   0  0  0  0  0  0
   14.7094   15.2306   11.5401 O   0  0  0  0  0  0
   14.7586   13.9188   12.0956 C   0  0  0  0  0  0
   13.5945   17.2982   11.2071 C   0  0  0  0  0  0
   14.1462   19.5990    9.2093 N   0  0  0  0  0  0
   14.7094   20.3450    8.2287 C   0  0  0  0  0  0
   14.3630   21.6117    7.8921 N   0  0  0  0  0  0
   11.1045   24.2858    9.4643 C   0  0  0  0  0  0
    8.9634   22.0773    9.8261 H   0  0  0  0  0  0
    7.2756   22.4625   10.3172 H   0  0  0  0  0  0
    8.2930   21.4196   11.3081 H   0  0  0  0  0  0
    9.0499   23.3221   12.4123 H   0  0  0  0  0  0
   10.3711   27.4798   10.3877 H   0  0  0  0  0  0
   12.4444   27.9012    9.1085 H   0  0  0  0  0  0
   13.6430   26.0272    8.0650 H   0  0  0  0  0  0
   13.6901   23.8326    7.4893 H   0  0  0  0  0  0
   12.0104   21.9661   10.3026 H   0  0  0  0  0  0
   11.6755   20.0000   11.2828 H   0  0  0  0  0  0
   10.5247   18.3459   12.2219 H   0  0  0  0  0  0
   10.4958   16.0869   13.1778 H   0  0  0  0  0  0
   12.3994   14.5935   12.8819 H   0  0  0  0  0  0
   15.7019   13.4437   11.8287 H   0  0  0  0  0  0
   14.7016   13.9434   13.1851 H   0  0  0  0  0  0
   13.9571   13.2878   11.7086 H   0  0  0  0  0  0
   14.4817   17.6211   10.6864 H   0  0  0  0  0  0
   15.4961   19.8821    7.6511 H   0  0  0  0  0  0
   10.6843   23.2978    9.4980 H   0  0  0  0  0  0
  1  2  1  0  0  0
  1 28  1  0  0  0
  1 29  1  0  0  0
  1 30  1  0  0  0
  2  3  1  0  0  0
  2 31  1  0  0  0
  3  4  2  0  0  0
  3  5  2  0  0  0
  3  6  1  0  0  0
  6 27  1  0  0  0
  6  7  2  0  0  0
  7  8  1  0  0  0
  7 32  1  0  0  0
  8  9  2  0  0  0
  8 33  1  0  0  0
  9 10  1  0  0  0
  9 34  1  0  0  0
 10 11  1  0  0  0
 10 27  2  0  0  0
 11 12  1  0  0  0
 11 35  1  0  0  0
 12 26  1  0  0  0
 12 13  2  0  0  0
 13 14  1  0  0  0
 13 36  1  0  0  0
 14 15  1  0  0  0
 14 24  2  0  0  0
 15 16  1  0  0  0
 15 37  1  0  0  0
 16 23  1  0  0  0
 16 17  2  0  0  0
 17 18  1  0  0  0
 17 38  1  0  0  0
 18 19  2  0  0  0
 18 39  1  0  0  0
 19 20  1  0  0  0
 19 40  1  0  0  0
 20 21  1  0  0  0
 20 23  2  0  0  0
 21 22  1  0  0  0
 22 41  1  0  0  0
 22 42  1  0  0  0
 22 43  1  0  0  0
 23 44  1  0  0  0
 24 25  1  0  0  0
 25 26  2  0  0  0
 25 45  1  0  0  0
 27 46  1  0  0  0
M  END
> <Tot Q>
0

> <Source File Index>
8

> <i_f3d_flags>
0

> <subgroup collapsed>
0

> <Ionization Penalty>
0.0001

> <State Penalty>
0

> <docking score>
-9.09285

> <glide emodel>
-75.3644

> <glide gscore>
-9.09285

> <tautomer probability>
1

> <Source File>
Sries46192_dock_SP_confgen_100_lib.maegz

> <Source Path>
C:\Users\yujie\Desktop\two_s\data

> <entry id>
47926

> <subgroup title>
a

> <subgroupid>
Sries46192_dock_SP_confgen_100_lib

$$$$
