Gefitinib
                    3D
 Schrodinger Suite 2024-1.
 56 59  0  0  1  0            999 V2000
  -52.2501    0.2718  -19.0145 C   0  0  0  0  0  0
  -51.4105   -0.5168  -19.8297 C   0  0  0  0  0  0
  -51.6834   -0.6397  -21.2154 C   0  0  0  0  0  0
  -52.7899    0.0369  -21.7914 C   0  0  0  0  0  0
  -53.6365    0.8217  -20.9698 C   0  0  0  0  0  0
  -53.3521    0.9300  -19.5989 C   0  0  0  0  0  0
  -54.7055    1.4649  -21.4793 N   0  0  0  0  0  0
  -54.9476    1.3212  -22.7798 C   0  0  0  0  0  0
  -54.2026    0.6400  -23.6465 N   0  0  0  0  0  0
  -53.1181   -0.0063  -23.1726 C   0  0  0  0  0  0
  -52.7087    1.2216  -16.8504 C   0  0  0  0  0  0
  -51.9339    0.3595  -17.6739 O   0  0  0  0  0  0
  -52.3618   -0.7520  -24.0950 N   0  0  0  0  0  0
  -52.5117   -0.7987  -25.4927 C   0  0  0  0  0  0
  -52.6493    0.3729  -26.2800 C   0  0  0  0  0  0
  -52.7969    0.2792  -27.6824 C   0  0  0  0  0  0
  -52.8103   -0.9855  -28.2993 C   0  0  0  0  0  0
  -52.6533   -2.1485  -27.5261 C   0  0  0  0  0  0
  -52.4922   -2.0552  -26.1301 C   0  0  0  0  0  0
  -52.9479   -1.0790  -29.6410 F   0  0  0  0  0  0
  -52.9478    1.6981  -28.6647 Cl  0  0  0  0  0  0
  -50.3472   -1.1076  -19.1852 O   0  0  0  0  0  0
  -49.4576   -1.9375  -19.9077 C   0  0  0  0  0  0
  -48.3909   -2.4236  -18.9095 C   0  0  0  0  0  0
  -48.9457   -3.2432  -17.7133 C   0  0  0  0  0  0
  -48.9062   -4.7181  -17.8917 N   0  3  0  0  0  0
  -47.5496   -5.3140  -17.7945 C   0  0  0  0  0  0
  -47.6376   -6.8498  -17.8705 C   0  0  0  0  0  0
  -48.3034   -7.2345  -19.0681 O   0  0  0  0  0  0
  -49.6421   -6.7526  -19.1084 C   0  0  0  0  0  0
  -49.6135   -5.2157  -19.0969 C   0  0  0  0  0  0
  -51.0397   -1.2316  -21.8449 H   0  0  0  0  0  0
  -54.0225    1.5315  -19.0042 H   0  0  0  0  0  0
  -55.8080    1.8345  -23.1802 H   0  0  0  0  0  0
  -52.3118    1.2060  -15.8354 H   0  0  0  0  0  0
  -52.6697    2.2532  -17.2012 H   0  0  0  0  0  0
  -53.7492    0.9015  -16.7968 H   0  0  0  0  0  0
  -51.8032   -1.4857  -23.6907 H   0  0  0  0  0  0
  -52.6414    1.3469  -25.8129 H   0  0  0  0  0  0
  -52.6563   -3.1171  -28.0049 H   0  0  0  0  0  0
  -52.3770   -2.9648  -25.5567 H   0  0  0  0  0  0
  -48.9791   -1.3676  -20.7041 H   0  0  0  0  0  0
  -49.9935   -2.7684  -20.3643 H   0  0  0  0  0  0
  -47.8980   -1.5366  -18.5097 H   0  0  0  0  0  0
  -47.6079   -2.9681  -19.4376 H   0  0  0  0  0  0
  -49.9698   -2.9449  -17.4868 H   0  0  0  0  0  0
  -48.3727   -3.0004  -16.8180 H   0  0  0  0  0  0
  -47.0827   -5.0175  -16.8548 H   0  0  0  0  0  0
  -46.9141   -4.9443  -18.6001 H   0  0  0  0  0  0
  -46.6345   -7.2769  -17.8777 H   0  0  0  0  0  0
  -48.1472   -7.2644  -17.0009 H   0  0  0  0  0  0
  -50.1195   -7.1076  -20.0234 H   0  0  0  0  0  0
  -50.2167   -7.1526  -18.2795 H   0  0  0  0  0  0
  -49.1071   -4.8702  -19.9992 H   0  0  0  0  0  0
  -50.6240   -4.8120  -19.1180 H   0  0  0  0  0  0
  -49.4125   -5.1388  -17.1045 H   0  0  0  0  0  0
  1  2  2  0  0  0
  1  6  1  0  0  0
  1 12  1  0  0  0
  2  3  1  0  0  0
  2 22  1  0  0  0
  3  4  2  0  0  0
  3 32  1  0  0  0
  4  5  1  0  0  0
  4 10  1  0  0  0
  5  6  2  0  0  0
  5  7  1  0  0  0
  6 33  1  0  0  0
  7  8  2  0  0  0
  8  9  1  0  0  0
  8 34  1  0  0  0
  9 10  2  0  0  0
 10 13  1  0  0  0
 11 12  1  0  0  0
 11 35  1  0  0  0
 11 36  1  0  0  0
 11 37  1  0  0  0
 13 14  1  0  0  0
 13 38  1  0  0  0
 14 15  2  0  0  0
 14 19  1  0  0  0
 15 16  1  0  0  0
 15 39  1  0  0  0
 16 17  2  0  0  0
 16 21  1  0  0  0
 17 18  1  0  0  0
 17 20  1  0  0  0
 18 19  2  0  0  0
 18 40  1  0  0  0
 19 41  1  0  0  0
 22 23  1  0  0  0
 23 24  1  0  0  0
 23 42  1  0  0  0
 23 43  1  0  0  0
 24 25  1  0  0  0
 24 44  1  0  0  0
 24 45  1  0  0  0
 25 26  1  0  0  0
 25 46  1  0  0  0
 25 47  1  0  0  0
 26 27  1  0  0  0
 26 31  1  0  0  0
 26 56  1  0  0  0
 27 28  1  0  0  0
 27 48  1  0  0  0
 27 49  1  0  0  0
 28 29  1  0  0  0
 28 50  1  0  0  0
 28 51  1  0  0  0
 29 30  1  0  0  0
 30 31  1  0  0  0
 30 52  1  0  0  0
 30 53  1  0  0  0
 31 54  1  0  0  0
 31 55  1  0  0  0
M  CHG  1  26   1
M  END
> <Tot Q>
1

> <flags>
0

> <Source File Index>
2

> <stars>
0

> <subgroup collapsed>
0

> <prepared>
1

> <Ionization Penalty>
0.416

> <State Penalty>
0.4147

> <Potential Energy-S-OPLS>
-915.57

> <docking score>
-8.53494

> <glide emodel>
-88.8837

> <glide gscore>
-8.94964

> <tautomer probability>
0.999978

> <Source File>
glide-dock_SP_EGFR_MT_2ITZ_L858R_2ITZ_pv.maegz

> <Source Path>
C:\Users\yujie\Desktop\res\docking\EGFR (P00533)\glide-dock_SP_EGFR_MT_L858R_2ITZ

> <entry id>
257

> <subgroup title>
glide-dock_SP_EGFR_MT_2ITZ_L858R_2ITZ_pv

> <subgroupid>
glide-dock_SP_EGFR_MT_2ITZ_L858R_2ITZ_pv

$$$$
