Gefitinib
                    3D
 Schrodinger Suite 2024-1.
 56 59  0  0  1  0            999 V2000
    0.1126  194.8268   17.9024 C   0  0  0  0  0  0
    0.8290  194.0729   18.8617 C   0  0  0  0  0  0
    0.8572  194.4806   20.2070 C   0  0  0  0  0  0
    0.1724  195.6466   20.6141 C   0  0  0  0  0  0
   -0.5244  196.4329   19.6614 C   0  0  0  0  0  0
   -0.5371  196.0174   18.3153 C   0  0  0  0  0  0
   -1.1679  197.5594   20.0343 N   0  0  0  0  0  0
   -1.1328  197.8920   21.3233 C   0  0  0  0  0  0
   -0.5286  197.2171   22.2972 N   0  0  0  0  0  0
    0.1311  196.0905   21.9578 C   0  0  0  0  0  0
   -0.7328  195.0245   15.6579 C   0  0  0  0  0  0
    0.0672  194.3403   16.6117 O   0  0  0  0  0  0
    0.8333  195.4103   22.9652 N   0  0  0  0  0  0
    0.7894  195.6332   24.3477 C   0  0  0  0  0  0
   -0.4337  195.8271   25.0310 C   0  0  0  0  0  0
   -0.4442  196.0258   26.4255 C   0  0  0  0  0  0
    0.7672  196.0269   27.1370 C   0  0  0  0  0  0
    1.9894  195.8388   26.4669 C   0  0  0  0  0  0
    1.9987  195.6268   25.0749 C   0  0  0  0  0  0
    0.7503  196.1781   28.4755 F   0  0  0  0  0  0
   -1.9327  196.2426   27.2755 Cl  0  0  0  0  0  0
    1.4425  192.8925   18.5323 O   0  0  0  0  0  0
    2.6543  193.0322   17.8084 C   0  0  0  0  0  0
    3.1695  191.6208   17.4808 C   0  0  0  0  0  0
    4.5357  191.5867   16.7599 C   0  0  0  0  0  0
    4.4672  191.5446   15.2755 N   0  3  0  0  0  0
    3.7810  192.6893   14.6334 C   0  0  0  0  0  0
    3.9885  192.6303   13.1109 C   0  0  0  0  0  0
    3.5134  191.3817   12.6193 O   0  0  0  0  0  0
    4.2192  190.2782   13.1778 C   0  0  0  0  0  0
    4.0134  190.2567   14.7026 C   0  0  0  0  0  0
    1.3848  193.8645   20.9191 H   0  0  0  0  0  0
   -1.0752  196.6335   17.6121 H   0  0  0  0  0  0
   -1.5907  198.8266   21.6024 H   0  0  0  0  0  0
   -0.7064  194.4834   14.7123 H   0  0  0  0  0  0
   -1.7749  195.0830   15.9752 H   0  0  0  0  0  0
   -0.3547  196.0288   15.4694 H   0  0  0  0  0  0
    1.5772  194.8141   22.6379 H   0  0  0  0  0  0
   -1.3694  195.8171   24.4911 H   0  0  0  0  0  0
    2.9123  195.8423   27.0287 H   0  0  0  0  0  0
    2.9415  195.4742   24.5693 H   0  0  0  0  0  0
    3.3830  193.5680   18.4191 H   0  0  0  0  0  0
    2.4996  193.6169   16.9035 H   0  0  0  0  0  0
    2.4145  191.0612   16.9289 H   0  0  0  0  0  0
    3.2822  191.0945   18.4290 H   0  0  0  0  0  0
    5.0871  190.7037   17.0862 H   0  0  0  0  0  0
    5.1496  192.4339   17.0678 H   0  0  0  0  0  0
    4.1772  193.6265   15.0244 H   0  0  0  0  0  0
    2.7132  192.6593   14.8534 H   0  0  0  0  0  0
    3.4372  193.4359   12.6252 H   0  0  0  0  0  0
    5.0389  192.7646   12.8517 H   0  0  0  0  0  0
    3.8432  189.3561   12.7343 H   0  0  0  0  0  0
    5.2795  190.3442   12.9270 H   0  0  0  0  0  0
    2.9619  190.0837   14.9350 H   0  0  0  0  0  0
    4.5811  189.4335   15.1382 H   0  0  0  0  0  0
    5.4500  191.6269   14.9709 H   0  0  0  0  0  0
  1  2  2  0  0  0
  1  6  1  0  0  0
  1 12  1  0  0  0
  2  3  1  0  0  0
  2 22  1  0  0  0
  3  4  2  0  0  0
  3 32  1  0  0  0
  4  5  1  0  0  0
  4 10  1  0  0  0
  5  6  2  0  0  0
  5  7  1  0  0  0
  6 33  1  0  0  0
  7  8  2  0  0  0
  8  9  1  0  0  0
  8 34  1  0  0  0
  9 10  2  0  0  0
 10 13  1  0  0  0
 11 12  1  0  0  0
 11 35  1  0  0  0
 11 36  1  0  0  0
 11 37  1  0  0  0
 13 14  1  0  0  0
 13 38  1  0  0  0
 14 15  2  0  0  0
 14 19  1  0  0  0
 15 16  1  0  0  0
 15 39  1  0  0  0
 16 17  2  0  0  0
 16 21  1  0  0  0
 17 18  1  0  0  0
 17 20  1  0  0  0
 18 19  2  0  0  0
 18 40  1  0  0  0
 19 41  1  0  0  0
 22 23  1  0  0  0
 23 24  1  0  0  0
 23 42  1  0  0  0
 23 43  1  0  0  0
 24 25  1  0  0  0
 24 44  1  0  0  0
 24 45  1  0  0  0
 25 26  1  0  0  0
 25 46  1  0  0  0
 25 47  1  0  0  0
 26 27  1  0  0  0
 26 31  1  0  0  0
 26 56  1  0  0  0
 27 28  1  0  0  0
 27 48  1  0  0  0
 27 49  1  0  0  0
 28 29  1  0  0  0
 28 50  1  0  0  0
 28 51  1  0  0  0
 29 30  1  0  0  0
 30 31  1  0  0  0
 30 52  1  0  0  0
 30 53  1  0  0  0
 31 54  1  0  0  0
 31 55  1  0  0  0
M  CHG  1  26   1
M  END
> <Tot Q>
1

> <flags>
0

> <Source File Index>
5

> <stars>
0

> <subgroup collapsed>
0

> <prepared>
1

> <Ionization Penalty>
0.416

> <State Penalty>
0.4147

> <Potential Energy-S-OPLS>
-915.57

> <docking score>
-8.00279

> <glide emodel>
-83.0471

> <glide gscore>
-8.41749

> <tautomer probability>
0.999978

> <Source File>
glide-dock_SP_EGFR_MT_G719C_4WKQ_pv.maegz

> <Source Path>
C:\Users\yujie\Desktop\res\docking\EGFR (P00533)\glide-dock_SP_EGFR_MT_G719C_4WKQ

> <entry id>
353

> <subgroup title>
glide-dock_SP_EGFR_MT_G719C_4WKQ_pv

> <subgroupid>
glide-dock_SP_EGFR_MT_G719C_4WKQ_pv

$$$$
