Gefitinib
                    3D
 Schrodinger Suite 2024-1.
 56 59  0  0  1  0            999 V2000
   -0.0279  194.7327   17.1651 C   0  0  0  0  0  0
    0.9198  194.1043   18.0028 C   0  0  0  0  0  0
    1.0070  194.4800   19.3669 C   0  0  0  0  0  0
    0.1970  195.5233   19.8757 C   0  0  0  0  0  0
   -0.6937  196.2144   19.0149 C   0  0  0  0  0  0
   -0.8065  195.7941   17.6789 C   0  0  0  0  0  0
   -1.4284  197.2518   19.4613 N   0  0  0  0  0  0
   -1.3082  197.5878   20.7418 C   0  0  0  0  0  0
   -0.5530  196.9743   21.6471 N   0  0  0  0  0  0
    0.2184  195.9444   21.2295 C   0  0  0  0  0  0
   -0.9127  195.0448   14.9513 C   0  0  0  0  0  0
   -0.1132  194.2964   15.8603 O   0  0  0  0  0  0
    1.0636  195.3361   22.1707 N   0  0  0  0  0  0
    1.0697  195.5079   23.5630 C   0  0  0  0  0  0
   -0.1261  195.5719   24.3165 C   0  0  0  0  0  0
   -0.0801  195.7555   25.7114 C   0  0  0  0  0  0
    1.1629  195.8857   26.3604 C   0  0  0  0  0  0
    2.3577  195.7922   25.6221 C   0  0  0  0  0  0
    2.3106  195.5941   24.2272 C   0  0  0  0  0  0
    1.2101  196.0822   27.6962 F   0  0  0  0  0  0
   -1.5418  195.7928   26.6306 Cl  0  0  0  0  0  0
    1.7240  193.1477   17.4200 O   0  0  0  0  0  0
    2.9247  192.7678   18.0821 C   0  0  0  0  0  0
    3.7947  191.9795   17.0877 C   0  0  0  0  0  0
    5.0988  191.4523   17.7173 C   0  0  0  0  0  0
    6.0370  190.8333   16.7415 N   0  3  0  0  0  0
    5.4801  189.6551   16.0268 C   0  0  0  0  0  0
    6.5161  189.0819   15.0400 C   0  0  0  0  0  0
    7.7007  188.7376   15.7467 O   0  0  0  0  0  0
    8.3045  189.8858   16.3260 C   0  0  0  0  0  0
    7.3422  190.4961   17.3606 C   0  0  0  0  0  0
    1.6984  193.9755   20.0223 H   0  0  0  0  0  0
   -1.5028  196.3320   17.0541 H   0  0  0  0  0  0
   -1.9001  198.4226   21.0813 H   0  0  0  0  0  0
   -0.8298  194.6138   13.9544 H   0  0  0  0  0  0
   -1.9675  195.0231   15.2324 H   0  0  0  0  0  0
   -0.5752  196.0815   14.8891 H   0  0  0  0  0  0
    1.8491  194.8353   21.7847 H   0  0  0  0  0  0
   -1.0847  195.4742   23.8258 H   0  0  0  0  0  0
    3.3090  195.8756   26.1262 H   0  0  0  0  0  0
    3.2346  195.5238   23.6730 H   0  0  0  0  0  0
    2.6880  192.1482   18.9512 H   0  0  0  0  0  0
    3.4713  193.6478   18.4320 H   0  0  0  0  0  0
    4.0231  192.6185   16.2329 H   0  0  0  0  0  0
    3.1983  191.1490   16.7046 H   0  0  0  0  0  0
    4.8638  190.7339   18.5045 H   0  0  0  0  0  0
    5.6150  192.2806   18.2027 H   0  0  0  0  0  0
    4.5905  189.9345   15.4629 H   0  0  0  0  0  0
    5.1800  188.8887   16.7390 H   0  0  0  0  0  0
    6.1252  188.1839   14.5579 H   0  0  0  0  0  0
    6.7453  189.7913   14.2406 H   0  0  0  0  0  0
    9.2348  189.5873   16.8075 H   0  0  0  0  0  0
    8.5683  190.5931   15.5419 H   0  0  0  0  0  0
    7.1895  189.7906   18.1773 H   0  0  0  0  0  0
    7.7937  191.3892   17.7935 H   0  0  0  0  0  0
    6.2502  191.5119   16.0115 H   0  0  0  0  0  0
  1  2  2  0  0  0
  1  6  1  0  0  0
  1 12  1  0  0  0
  2  3  1  0  0  0
  2 22  1  0  0  0
  3  4  2  0  0  0
  3 32  1  0  0  0
  4  5  1  0  0  0
  4 10  1  0  0  0
  5  6  2  0  0  0
  5  7  1  0  0  0
  6 33  1  0  0  0
  7  8  2  0  0  0
  8  9  1  0  0  0
  8 34  1  0  0  0
  9 10  2  0  0  0
 10 13  1  0  0  0
 11 12  1  0  0  0
 11 35  1  0  0  0
 11 36  1  0  0  0
 11 37  1  0  0  0
 13 14  1  0  0  0
 13 38  1  0  0  0
 14 15  2  0  0  0
 14 19  1  0  0  0
 15 16  1  0  0  0
 15 39  1  0  0  0
 16 17  2  0  0  0
 16 21  1  0  0  0
 17 18  1  0  0  0
 17 20  1  0  0  0
 18 19  2  0  0  0
 18 40  1  0  0  0
 19 41  1  0  0  0
 22 23  1  0  0  0
 23 24  1  0  0  0
 23 42  1  0  0  0
 23 43  1  0  0  0
 24 25  1  0  0  0
 24 44  1  0  0  0
 24 45  1  0  0  0
 25 26  1  0  0  0
 25 46  1  0  0  0
 25 47  1  0  0  0
 26 27  1  0  0  0
 26 31  1  0  0  0
 26 56  1  0  0  0
 27 28  1  0  0  0
 27 48  1  0  0  0
 27 49  1  0  0  0
 28 29  1  0  0  0
 28 50  1  0  0  0
 28 51  1  0  0  0
 29 30  1  0  0  0
 30 31  1  0  0  0
 30 52  1  0  0  0
 30 53  1  0  0  0
 31 54  1  0  0  0
 31 55  1  0  0  0
M  CHG  1  26   1
M  END
> <Tot Q>
1

> <flags>
0

> <Source File Index>
2

> <stars>
0

> <subgroup collapsed>
0

> <prepared>
1

> <Ionization Penalty>
0.416

> <State Penalty>
0.4147

> <Potential Energy-S-OPLS>
-915.57

> <docking score>
-8.11121

> <glide emodel>
-85.9579

> <glide gscore>
-8.52591

> <tautomer probability>
0.999978

> <Source File>
glide-dock_SP_EGFR_MT_P753S_4WKQ_pv.maegz

> <Source Path>
C:\Users\yujie\Desktop\res\docking\EGFR (P00533)\glide-dock_SP_EGFR_MT_P753S_4WKQ

> <entry id>
288

> <subgroup title>
glide-dock_SP_EGFR_MT_P753S_4WKQ_pv

> <subgroupid>
glide-dock_SP_EGFR_MT_P753S_4WKQ_pv

$$$$
