Gefitinib
                    3D
 Schrodinger Suite 2024-1.
 56 59  0  0  1  0            999 V2000
    0.2324  194.7240   17.6108 C   0  0  0  0  0  0
    1.0825  194.1190   18.5648 C   0  0  0  0  0  0
    1.0284  194.5538   19.9112 C   0  0  0  0  0  0
    0.2244  195.6542   20.2826 C   0  0  0  0  0  0
   -0.5705  196.3171   19.3121 C   0  0  0  0  0  0
   -0.5710  195.8260   17.9925 C   0  0  0  0  0  0
   -1.3093  197.3996   19.6399 N   0  0  0  0  0  0
   -1.2546  197.8105   20.9068 C   0  0  0  0  0  0
   -0.5692  197.2459   21.8958 N   0  0  0  0  0  0
    0.1722  196.1603   21.6035 C   0  0  0  0  0  0
   -0.6200  194.7603   15.3604 C   0  0  0  0  0  0
    0.2615  194.2108   16.3298 O   0  0  0  0  0  0
    0.9348  195.5922   22.6392 N   0  0  0  0  0  0
    0.7844  195.7690   24.0222 C   0  0  0  0  0  0
   -0.4886  195.9083   24.6212 C   0  0  0  0  0  0
   -0.6080  196.0649   26.0139 C   0  0  0  0  0  0
    0.5440  196.0812   26.8214 C   0  0  0  0  0  0
    1.8147  195.9284   26.2366 C   0  0  0  0  0  0
    1.9334  195.7633   24.8423 C   0  0  0  0  0  0
    0.4265  196.2094   28.1626 F   0  0  0  0  0  0
   -2.1691  196.2102   26.7255 Cl  0  0  0  0  0  0
    1.9369  193.1335   18.1097 O   0  0  0  0  0  0
    2.9620  192.6432   18.9716 C   0  0  0  0  0  0
    4.1674  192.1793   18.1378 C   0  0  0  0  0  0
    5.2279  191.4750   19.0085 C   0  0  0  0  0  0
    6.5777  191.4105   18.3902 N   0  3  0  0  0  0
    6.6479  190.6799   17.1001 C   0  0  0  0  0  0
    8.0786  190.7601   16.5350 C   0  0  0  0  0  0
    8.9879  190.2055   17.4781 O   0  0  0  0  0  0
    8.9992  190.9424   18.6931 C   0  0  0  0  0  0
    7.6004  190.8997   19.3343 C   0  0  0  0  0  0
    1.6145  194.0568   20.6664 H   0  0  0  0  0  0
   -1.1926  196.3410   17.2774 H   0  0  0  0  0  0
   -1.7697  198.7241   21.1500 H   0  0  0  0  0  0
   -0.4959  194.2296   14.4171 H   0  0  0  0  0  0
   -1.6615  194.6504   15.6663 H   0  0  0  0  0  0
   -0.4051  195.8130   15.1704 H   0  0  0  0  0  0
    1.7283  195.0444   22.3486 H   0  0  0  0  0  0
   -1.3842  195.8883   24.0191 H   0  0  0  0  0  0
    2.6945  195.9360   26.8640 H   0  0  0  0  0  0
    2.9161  195.6464   24.4076 H   0  0  0  0  0  0
    2.5587  191.8220   19.5670 H   0  0  0  0  0  0
    3.3299  193.4073   19.6580 H   0  0  0  0  0  0
    4.6052  193.0518   17.6471 H   0  0  0  0  0  0
    3.8314  191.5075   17.3438 H   0  0  0  0  0  0
    4.8891  190.4691   19.2643 H   0  0  0  0  0  0
    5.3215  192.0189   19.9520 H   0  0  0  0  0  0
    5.9620  191.1100   16.3682 H   0  0  0  0  0  0
    6.3532  189.6390   17.2415 H   0  0  0  0  0  0
    8.1504  190.2104   15.5971 H   0  0  0  0  0  0
    8.3539  191.7950   16.3243 H   0  0  0  0  0  0
    9.7330  190.5009   19.3661 H   0  0  0  0  0  0
    9.3200  191.9690   18.5095 H   0  0  0  0  0  0
    7.3537  189.8766   19.6250 H   0  0  0  0  0  0
    7.6017  191.4993   20.2443 H   0  0  0  0  0  0
    6.8688  192.3662   18.1779 H   0  0  0  0  0  0
  1  2  2  0  0  0
  1  6  1  0  0  0
  1 12  1  0  0  0
  2  3  1  0  0  0
  2 22  1  0  0  0
  3  4  2  0  0  0
  3 32  1  0  0  0
  4  5  1  0  0  0
  4 10  1  0  0  0
  5  6  2  0  0  0
  5  7  1  0  0  0
  6 33  1  0  0  0
  7  8  2  0  0  0
  8  9  1  0  0  0
  8 34  1  0  0  0
  9 10  2  0  0  0
 10 13  1  0  0  0
 11 12  1  0  0  0
 11 35  1  0  0  0
 11 36  1  0  0  0
 11 37  1  0  0  0
 13 14  1  0  0  0
 13 38  1  0  0  0
 14 15  2  0  0  0
 14 19  1  0  0  0
 15 16  1  0  0  0
 15 39  1  0  0  0
 16 17  2  0  0  0
 16 21  1  0  0  0
 17 18  1  0  0  0
 17 20  1  0  0  0
 18 19  2  0  0  0
 18 40  1  0  0  0
 19 41  1  0  0  0
 22 23  1  0  0  0
 23 24  1  0  0  0
 23 42  1  0  0  0
 23 43  1  0  0  0
 24 25  1  0  0  0
 24 44  1  0  0  0
 24 45  1  0  0  0
 25 26  1  0  0  0
 25 46  1  0  0  0
 25 47  1  0  0  0
 26 27  1  0  0  0
 26 31  1  0  0  0
 26 56  1  0  0  0
 27 28  1  0  0  0
 27 48  1  0  0  0
 27 49  1  0  0  0
 28 29  1  0  0  0
 28 50  1  0  0  0
 28 51  1  0  0  0
 29 30  1  0  0  0
 30 31  1  0  0  0
 30 52  1  0  0  0
 30 53  1  0  0  0
 31 54  1  0  0  0
 31 55  1  0  0  0
M  CHG  1  26   1
M  END
> <Tot Q>
1

> <flags>
0

> <Source File Index>
2

> <stars>
0

> <subgroup collapsed>
0

> <prepared>
1

> <Ionization Penalty>
0.416

> <State Penalty>
0.4147

> <Potential Energy-S-OPLS>
-915.57

> <docking score>
-8.72453

> <glide emodel>
-94.6094

> <glide gscore>
-9.13923

> <tautomer probability>
0.999978

> <Source File>
glide-dock_SP_EGFR_MT_T790M_4WKQ_pv.maegz

> <Source Path>
C:\Users\yujie\Desktop\res\docking\EGFR (P00533)\glide-dock_SP_EGFR_MT_T790M_4WKQ

> <entry id>
299

> <subgroup title>
glide-dock_SP_EGFR_MT_T790M_4WKQ_pv

> <subgroupid>
glide-dock_SP_EGFR_MT_T790M_4WKQ_pv

$$$$
