lig_eg5_CHEMBL1083836
                    3D
 Schrodinger Suite 2020-3.
 55 59  0  0  1  0            999 V2000
   26.8886   14.7366   23.5445 C   0  0  0  0  0  0
   27.8809   14.8438   24.7152 N   0  3  0  0  0  0
   27.3166   15.5201   25.9824 C   0  0  0  0  0  0
   27.0733   17.0278   25.7871 C   0  0  2  0  0  0
   28.3516   17.7876   25.3694 C   0  0  0  0  0  0
   28.1141   19.3046   25.3560 C   0  0  0  0  0  0
   27.4666   19.8194   26.6680 C   0  0  2  0  0  0
   28.3937   19.8594   27.9228 C   0  0  1  0  0  0
   29.7506   20.5348   27.7948 C   0  0  0  0  0  0
   30.7435   20.1713   28.7082 C   0  0  0  0  0  0
   32.0026   20.7428   28.6190 C   0  0  0  0  0  0
   32.2857   21.6438   27.6006 C   0  0  0  0  0  0
   31.2930   22.0437   26.7154 C   0  0  0  0  0  0
   30.0101   21.5190   26.8331 C   0  0  0  0  0  0
   27.6615   20.4441   29.0378 N   0  0  0  0  0  0
   26.3563   20.0175   29.2952 C   0  0  0  0  0  0
   25.8404   20.2743   30.5614 C   0  0  0  0  0  0
   24.5996   19.7758   30.9203 C   0  0  0  0  0  0
   23.8680   19.0023   30.0187 C   0  0  0  0  0  0
   22.5079   18.4414   30.3927 C   0  0  0  0  0  0
   22.3117   17.5000   31.5551 C   0  0  0  0  0  0
   21.7443   18.9032   31.6127 C   0  0  0  0  0  0
   24.3918   18.7501   28.7480 C   0  0  0  0  0  0
   25.6326   19.2601   28.3551 C   0  0  0  0  0  0
   26.2201   18.9413   26.9807 C   0  0  2  0  0  0
   26.5869   17.5585   27.0157 O   0  0  0  0  0  0
   28.1861   13.9098   24.9614 H   0  0  0  0  0  0
   27.3858   14.1600   22.7637 H   0  0  0  0  0  0
   26.6575   15.7444   23.1961 H   0  0  0  0  0  0
   25.9991   14.2209   23.9062 H   0  0  0  0  0  0
   26.4040   14.9827   26.2473 H   0  0  0  0  0  0
   28.0661   15.3424   26.7561 H   0  0  0  0  0  0
   26.3017   17.1432   25.0233 H   0  0  0  0  0  0
   29.1683   17.5499   26.0541 H   0  0  0  0  0  0
   28.6847   17.4645   24.3829 H   0  0  0  0  0  0
   29.0512   19.8101   25.1341 H   0  0  0  0  0  0
   27.4525   19.5480   24.5228 H   0  0  0  0  0  0
   27.1014   20.8305   26.4775 H   0  0  0  0  0  0
   28.6203   18.8265   28.1949 H   0  0  0  0  0  0
   30.5429   19.4391   29.4758 H   0  0  0  0  0  0
   32.7967   20.4515   29.2918 H   0  0  0  0  0  0
   33.2857   22.0436   27.5127 H   0  0  0  0  0  0
   31.5169   22.7574   25.9324 H   0  0  0  0  0  0
   29.2393   21.8566   26.1544 H   0  0  0  0  0  0
   28.2289   20.8641   29.7586 H   0  0  0  0  0  0
   26.4027   20.8441   31.2850 H   0  0  0  0  0  0
   24.2343   19.9842   31.9125 H   0  0  0  0  0  0
   21.9038   18.1997   29.5168 H   0  0  0  0  0  0
   21.6109   16.6719   31.4409 H   0  0  0  0  0  0
   23.1766   17.2418   32.1658 H   0  0  0  0  0  0
   22.1773   19.6197   32.3079 H   0  0  0  0  0  0
   20.6765   19.0640   31.5025 H   0  0  0  0  0  0
   23.8246   18.1517   28.0512 H   0  0  0  0  0  0
   25.4547   19.1054   26.2198 H   0  0  0  0  0  0
   28.7070   15.3467   24.4161 H   0  0  0  0  0  0
  1  2  1  0  0  0
  1 28  1  0  0  0
  1 29  1  0  0  0
  1 30  1  0  0  0
  2 27  1  0  0  0
  2  3  1  0  0  0
  2 55  1  0  0  0
  3  4  1  0  0  0
  3 31  1  0  0  0
  3 32  1  0  0  0
  4 26  1  0  0  0
  4  5  1  0  0  0
  4 33  1  0  0  0
  5  6  1  0  0  0
  5 34  1  0  0  0
  5 35  1  0  0  0
  6  7  1  0  0  0
  6 36  1  0  0  0
  6 37  1  0  0  0
  7 25  1  0  0  0
  7  8  1  0  0  0
  7 38  1  0  0  0
  8  9  1  0  0  0
  8 15  1  0  0  0
  8 39  1  0  0  0
  9 14  1  0  0  0
  9 10  2  0  0  0
 10 11  1  0  0  0
 10 40  1  0  0  0
 11 12  2  0  0  0
 11 41  1  0  0  0
 12 13  1  0  0  0
 12 42  1  0  0  0
 13 14  2  0  0  0
 13 43  1  0  0  0
 14 44  1  0  0  0
 15 16  1  0  0  0
 15 45  1  0  0  0
 16 24  2  0  0  0
 16 17  1  0  0  0
 17 18  2  0  0  0
 17 46  1  0  0  0
 18 19  1  0  0  0
 18 47  1  0  0  0
 19 20  1  0  0  0
 19 23  2  0  0  0
 20 22  1  0  0  0
 20 21  1  0  0  0
 20 48  1  0  0  0
 21 22  1  0  0  0
 21 49  1  0  0  0
 21 50  1  0  0  0
 22 51  1  0  0  0
 22 52  1  0  0  0
 23 24  1  0  0  0
 23 53  1  0  0  0
 24 25  1  0  0  0
 25 26  1  0  0  0
 25 54  1  0  0  0
M  CHG  1   2   1
M  END
> <s_m_source_file>
/home/user-home/yujie/0_PBCNetv2/data/FEP/eg5/inp_ligprep.csv

> <i_m_source_file_index>
11

> <i_lp_mmshare_version>
51139

> <i_f3d_flags>
0

> <s_epik_input>
W0NIM11bTkhdW0NIMl1bQ0BIXShbQ0gyXVtDSDJdMSlPW0NASF0oW0NASF0xMiljM2MoW2NIXVtjSF1jKFtjSF0zKVtDSF00W0NIMl1bQ0gyXTQpW05IXVtDQEBIXTJjNVtjSF1bY0hdW2NIXVtjSF1bY0hdNQ==

> <s_epik_cmdline>
J2VwaWtfcHl0aG9uJywgJy1waHQnLCAnMi4wJywgJy1waCcsICc3LjQnLCAnLXRuJywgJzgnLCAnLW1hJywgJzIwMCcsICctaW1hZScsICc8aW5maWxlLm1hZT4nLCAnLW9tYWUnLCAnPG91dGZpbGUubWFlPic=

> <r_lp_tautomer_probability>
1

> <r_epik_Ionization_Penalty>
  0.0027

> <r_epik_Ionization_Penalty_Charging>
  0.0023

> <r_epik_Ionization_Penalty_Neutral>
  0.0004

> <r_epik_State_Penalty>
 -0.0000

> <r_epik_Charging_Adjusted_Penalty>
0.00233856

> <i_epik_Tot_Q>
1

> <i_epik_Tot_abs_Q>
1

> <s_lp_Force_Field>
OPLS3e

> <r_lp_Energy>
42.8259

> <b_lp_Chiralities_Consistent>
1

> <s_lp_Variant>
lig_eg5_CHEMBL1083836-1

> <s_i_glide_gridfile>
eg5-001-gridgen

> <i_i_glide_lignum>
14

> <i_i_glide_rotatable_bonds>
4

> <r_i_docking_score>
-7.69449469024983

> <r_i_glide_ligand_efficiency>
-0.295942103471147

> <r_i_glide_ligand_efficiency_sa>
-0.876727317057328

> <r_i_glide_ligand_efficiency_ln>
-1.8070268303088

> <r_i_glide_gscore>
-7.69449469024983

> <r_i_glide_lipo>
-4.69092002476442

> <r_i_glide_hbond>
0

> <r_i_glide_metal>
-0

> <r_i_glide_rewards>
-1.10121027272727

> <r_i_glide_evdw>
-40.1302261352539

> <r_i_glide_ecoul>
-2.42488670349121

> <r_i_glide_erotb>
0.467879919528232

> <r_i_glide_esite>
0

> <r_i_glide_emodel>
-56.9933819887258

> <r_i_glide_energy>
-42.5551128387451

> <r_i_glide_einternal>
8.62499713897705

> <i_i_glide_confnum>
2

> <i_i_glide_posenum>
371

> <r_i_glide_eff_state_penalty>
-0

$$$$
