lig_eg5_CHEMBL1084143
                    3D
 Schrodinger Suite 2024-1.
 74 77  0  0  1  0            999 V2000
   23.0129   17.2704   31.9736 C   0  0  0  0  0  0
   22.5698   18.4001   31.0490 C   0  0  0  0  0  0
   21.6907   19.4033   31.8099 C   0  0  0  0  0  0
   23.8113   19.0340   30.4518 C   0  0  0  0  0  0
   24.3972   20.1590   31.0592 C   0  0  0  0  0  0
   25.5843   20.6943   30.5584 C   0  0  0  0  0  0
   26.2117   20.1180   29.4452 C   0  0  0  0  0  0
   25.6275   18.9973   28.8029 C   0  0  0  0  0  0
   24.4239   18.4647   29.3126 C   0  0  0  0  0  0
   26.3155   18.3389   27.6114 C   0  0  1  0  0  0
   25.7188   18.7332   26.3668 O   0  0  0  0  0  0
   26.2946   18.1563   25.1976 C   0  0  1  0  0  0
   25.5211   18.6714   23.9709 C   0  0  0  0  0  0
   25.8860   17.9000   22.7709 N   0  0  0  0  0  0
   26.7793   18.5981   21.4896 S   0  0  0  0  0  0
   27.5214   17.5076   20.8486 O   0  0  0  0  0  0
   27.4757   19.7919   21.9800 O   0  0  0  0  0  0
   25.4521   19.0885   20.3283 C   0  0  0  0  0  0
   25.6757   20.4580   19.6591 C   0  0  0  0  0  0
   26.9897   20.6404   18.8585 C   0  0  0  0  0  0
   27.0782   21.9394   18.1293 N   0  3  0  0  0  0
   28.3990   22.1611   17.5049 C   0  0  0  0  0  0
   25.9672   22.2160   17.1896 C   0  0  0  0  0  0
   27.7863   18.5084   25.1095 C   0  0  0  0  0  0
   28.5123   18.0851   26.3827 C   0  0  0  0  0  0
   27.8182   18.6781   27.6197 C   0  0  1  0  0  0
   28.0106   20.2040   27.8064 C   0  0  2  0  0  0
   29.4674   20.6055   27.7797 C   0  0  0  0  0  0
   30.3253   20.1714   28.8093 C   0  0  0  0  0  0
   31.6803   20.5331   28.7933 C   0  0  0  0  0  0
   32.1855   21.3148   27.7397 C   0  0  0  0  0  0
   31.3280   21.7718   26.7274 C   0  0  0  0  0  0
   29.9650   21.4257   26.7511 C   0  0  0  0  0  0
   27.4323   20.6643   29.0514 N   0  0  0  0  0  0
   23.6574   16.5949   31.4244 H   0  0  0  0  0  0
   22.1899   16.6822   32.3569 H   0  0  0  0  0  0
   23.5779   17.6518   32.8204 H   0  0  0  0  0  0
   21.9869   17.9870   30.2245 H   0  0  0  0  0  0
   21.4894   20.2761   31.2059 H   0  0  0  0  0  0
   22.1750   19.7614   32.7131 H   0  0  0  0  0  0
   20.7285   18.9917   32.0835 H   0  0  0  0  0  0
   23.9579   20.6349   31.9168 H   0  0  0  0  0  0
   25.9984   21.5575   31.0433 H   0  0  0  0  0  0
   23.9879   17.5981   28.8416 H   0  0  0  0  0  0
   26.1986   17.2587   27.7169 H   0  0  0  0  0  0
   26.1753   17.0737   25.2713 H   0  0  0  0  0  0
   24.4520   18.5560   24.1476 H   0  0  0  0  0  0
   25.6939   19.7397   23.8203 H   0  0  0  0  0  0
   26.1918   16.9478   22.9599 H   0  0  0  0  0  0
   25.3433   18.2837   19.6043 H   0  0  0  0  0  0
   24.5331   19.1314   20.9123 H   0  0  0  0  0  0
   24.8104   20.6343   19.0237 H   0  0  0  0  0  0
   25.6276   21.2150   20.4316 H   0  0  0  0  0  0
   27.8429   20.5765   19.5364 H   0  0  0  0  0  0
   27.1050   19.8251   18.1440 H   0  0  0  0  0  0
   28.5986   21.4410   16.7118 H   0  0  0  0  0  0
   29.1866   22.0810   18.2444 H   0  0  0  0  0  0
   28.4643   23.1688   17.0930 H   0  0  0  0  0  0
   25.8357   21.4105   16.4677 H   0  0  0  0  0  0
   26.1520   23.1438   16.6467 H   0  0  0  0  0  0
   25.0319   22.3756   17.7267 H   0  0  0  0  0  0
   28.2381   18.0139   24.2515 H   0  0  0  0  0  0
   27.9111   19.5810   24.9504 H   0  0  0  0  0  0
   28.5155   16.9976   26.4579 H   0  0  0  0  0  0
   29.5559   18.3868   26.3328 H   0  0  0  0  0  0
   28.2619   18.1928   28.4903 H   0  0  0  0  0  0
   27.4935   20.7334   27.0031 H   0  0  0  0  0  0
   29.9302   19.5691   29.6134 H   0  0  0  0  0  0
   32.3242   20.1980   29.5844 H   0  0  0  0  0  0
   33.2266   21.5805   27.6911 H   0  0  0  0  0  0
   31.7276   22.3792   25.9267 H   0  0  0  0  0  0
   29.3077   21.7841   25.9750 H   0  0  0  0  0  0
   27.5132   21.6765   29.1473 H   0  0  0  0  0  0
   26.9986   22.7245   18.8141 H   0  0  0  0  0  0
  1  2  1  0  0  0
  1 35  1  0  0  0
  1 36  1  0  0  0
  1 37  1  0  0  0
  2  3  1  0  0  0
  2  4  1  0  0  0
  2 38  1  0  0  0
  3 39  1  0  0  0
  3 40  1  0  0  0
  3 41  1  0  0  0
  4  5  2  0  0  0
  4  9  1  0  0  0
  5  6  1  0  0  0
  5 42  1  0  0  0
  6  7  2  0  0  0
  6 43  1  0  0  0
  7  8  1  0  0  0
  7 34  1  0  0  0
  8  9  2  0  0  0
  8 10  1  0  0  0
  9 44  1  0  0  0
 10 11  1  0  0  0
 10 26  1  0  0  0
 10 45  1  0  0  0
 11 12  1  0  0  0
 12 13  1  0  0  0
 12 24  1  0  0  0
 12 46  1  0  0  0
 13 14  1  0  0  0
 13 47  1  0  0  0
 13 48  1  0  0  0
 14 15  1  0  0  0
 14 49  1  0  0  0
 15 16  2  0  0  0
 15 17  2  0  0  0
 15 18  1  0  0  0
 18 19  1  0  0  0
 18 50  1  0  0  0
 18 51  1  0  0  0
 19 20  1  0  0  0
 19 52  1  0  0  0
 19 53  1  0  0  0
 20 21  1  0  0  0
 20 54  1  0  0  0
 20 55  1  0  0  0
 21 22  1  0  0  0
 21 23  1  0  0  0
 21 74  1  0  0  0
 22 56  1  0  0  0
 22 57  1  0  0  0
 22 58  1  0  0  0
 23 59  1  0  0  0
 23 60  1  0  0  0
 23 61  1  0  0  0
 24 25  1  0  0  0
 24 62  1  0  0  0
 24 63  1  0  0  0
 25 26  1  0  0  0
 25 64  1  0  0  0
 25 65  1  0  0  0
 26 27  1  0  0  0
 26 66  1  0  0  0
 27 28  1  0  0  0
 27 34  1  0  0  0
 27 67  1  0  0  0
 28 29  2  0  0  0
 28 33  1  0  0  0
 29 30  1  0  0  0
 29 68  1  0  0  0
 30 31  2  0  0  0
 30 69  1  0  0  0
 31 32  1  0  0  0
 31 70  1  0  0  0
 32 33  2  0  0  0
 32 71  1  0  0  0
 33 72  1  0  0  0
 34 73  1  0  0  0
M  CHG  1  21   1
M  END
> <Tot Q>
1

> <flags>
0

> <Source File Index>
1

> <IC50[nM]>
2

> <subgroup collapsed>
0

> <Ionization Penalty>
0.0064

> <State Penalty>
0

> <docking score>
-8.38157

> <glide emodel>
-52.9559

> <glide gscore>
-8.38157

> <tautomer probability>
1

> <Source File>
glide-dock_SP_14_pv.maegz

> <Source Path>
C:\Users\yujie\Documents\Schrodinger\glide-dock_SP_14

> <entry id>
5549

> <job name>
glide-dock_SP_14

> <subgroup title>
glide-dock_SP_14_pv

> <subgroupid>
glide-dock_SP_14_pv

> <ID>
CHEMBL1084143

$$$$
