lig_eg5_CHEMBL1089056
                    3D
 Schrodinger Suite 2020-3.
 51 54  0  0  1  0            999 V2000
   22.8898   17.2583   32.1992 C   0  0  0  0  0  0
   22.5567   18.1537   30.9858 C   0  0  0  0  0  0
   21.8511   17.2664   29.9356 C   0  0  0  0  0  0
   21.5565   19.2399   31.4362 C   0  0  0  0  0  0
   23.8428   18.8135   30.4318 C   0  0  0  0  0  0
   24.4188   19.8793   31.1285 C   0  0  0  0  0  0
   25.6056   20.4549   30.7034 C   0  0  0  0  0  0
   26.2246   20.0134   29.5382 C   0  0  0  0  0  0
   25.6611   18.9687   28.7804 C   0  0  0  0  0  0
   24.4821   18.3787   29.2569 C   0  0  0  0  0  0
   26.3739   18.4289   27.5366 C   0  0  2  0  0  0
   26.9697   17.1825   27.9154 O   0  0  0  0  0  0
   27.6334   16.4893   26.8583 C   0  0  0  0  0  0
   28.7755   17.3389   26.2709 C   0  0  0  0  0  0
   28.2643   18.7346   25.8865 C   0  0  0  0  0  0
   27.4884   19.4009   27.0531 C   0  0  2  0  0  0
   28.3385   19.8165   28.2902 C   0  0  1  0  0  0
   29.6563   20.5312   28.0095 C   0  0  0  0  0  0
   29.7774   21.4946   27.0023 C   0  0  0  0  0  0
   31.0269   22.0403   26.7157 C   0  0  0  0  0  0
   32.1381   21.6439   27.4532 C   0  0  0  0  0  0
   32.0019   20.7709   28.5189 C   0  0  0  0  0  0
   30.7674   20.1952   28.7858 C   0  0  0  0  0  0
   27.4822   20.5513   29.2155 N   0  0  0  0  0  0
   22.0028   16.7588   32.5900 H   0  0  0  0  0  0
   23.3120   17.8335   33.0222 H   0  0  0  0  0  0
   23.6025   16.4805   31.9316 H   0  0  0  0  0  0
   22.4961   16.4444   29.6506 H   0  0  0  0  0  0
   21.6061   17.8119   29.0284 H   0  0  0  0  0  0
   20.9225   16.8362   30.3141 H   0  0  0  0  0  0
   20.5494   18.8473   31.5153 H   0  0  0  0  0  0
   21.5068   20.0438   30.7152 H   0  0  0  0  0  0
   21.8126   19.6844   32.3979 H   0  0  0  0  0  0
   23.9746   20.2438   32.0410 H   0  0  0  0  0  0
   26.0410   21.2439   31.2956 H   0  0  0  0  0  0
   24.0894   17.5462   28.6972 H   0  0  0  0  0  0
   25.6451   18.2715   26.7394 H   0  0  0  0  0  0
   28.0486   15.5647   27.2544 H   0  0  0  0  0  0
   26.9128   16.2101   26.0878 H   0  0  0  0  0  0
   29.5936   17.4224   26.9864 H   0  0  0  0  0  0
   29.2007   16.8412   25.3988 H   0  0  0  0  0  0
   29.1094   19.3436   25.5671 H   0  0  0  0  0  0
   27.6083   18.6515   25.0191 H   0  0  0  0  0  0
   27.0015   20.2916   26.6475 H   0  0  0  0  0  0
   28.6282   18.8982   28.8052 H   0  0  0  0  0  0
   28.9179   21.7912   26.4189 H   0  0  0  0  0  0
   31.1417   22.7552   25.9158 H   0  0  0  0  0  0
   33.1145   22.0440   27.2242 H   0  0  0  0  0  0
   32.8556   20.5125   29.1162 H   0  0  0  0  0  0
   30.6799   19.4780   29.5887 H   0  0  0  0  0  0
   27.9552   21.1897   29.8350 H   0  0  0  0  0  0
  1  2  1  0  0  0
  1 25  1  0  0  0
  1 26  1  0  0  0
  1 27  1  0  0  0
  2  3  1  0  0  0
  2  4  1  0  0  0
  2  5  1  0  0  0
  3 28  1  0  0  0
  3 29  1  0  0  0
  3 30  1  0  0  0
  4 31  1  0  0  0
  4 32  1  0  0  0
  4 33  1  0  0  0
  5 10  1  0  0  0
  5  6  2  0  0  0
  6  7  1  0  0  0
  6 34  1  0  0  0
  7  8  2  0  0  0
  7 35  1  0  0  0
  8 24  1  0  0  0
  8  9  1  0  0  0
  9 10  2  0  0  0
  9 11  1  0  0  0
 10 36  1  0  0  0
 11 16  1  0  0  0
 11 12  1  0  0  0
 11 37  1  0  0  0
 12 13  1  0  0  0
 13 14  1  0  0  0
 13 38  1  0  0  0
 13 39  1  0  0  0
 14 15  1  0  0  0
 14 40  1  0  0  0
 14 41  1  0  0  0
 15 16  1  0  0  0
 15 42  1  0  0  0
 15 43  1  0  0  0
 16 17  1  0  0  0
 16 44  1  0  0  0
 17 18  1  0  0  0
 17 24  1  0  0  0
 17 45  1  0  0  0
 18 23  1  0  0  0
 18 19  2  0  0  0
 19 20  1  0  0  0
 19 46  1  0  0  0
 20 21  2  0  0  0
 20 47  1  0  0  0
 21 22  1  0  0  0
 21 48  1  0  0  0
 22 23  2  0  0  0
 22 49  1  0  0  0
 23 50  1  0  0  0
 24 51  1  0  0  0
M  END
> <s_m_source_file>
/home/user-home/yujie/0_PBCNetv2/data/FEP/eg5/inp_ligprep.csv

> <i_m_source_file_index>
27

> <i_lp_mmshare_version>
51139

> <i_f3d_flags>
0

> <s_epik_input>
W0NIM11DKFtDSDNdKShbQ0gzXSljKFtjSF1bY0hdMSlbY0hdYyhjMTIpW0NASF0zW0NASF0oW0NIMl1bQ0gyXVtDSDJdTzMpW0NASF0oW05IXTIpYzRbY0hdW2NIXVtjSF1bY0hdW2NIXTQ=

> <s_epik_cmdline>
J2VwaWtfcHl0aG9uJywgJy1waHQnLCAnMi4wJywgJy1waCcsICc3LjQnLCAnLXRuJywgJzgnLCAnLW1hJywgJzIwMCcsICctaW1hZScsICc8aW5maWxlLm1hZT4nLCAnLW9tYWUnLCAnPG91dGZpbGUubWFlPic=

> <r_epik_Ionization_Penalty>
  0.0005

> <r_epik_Ionization_Penalty_Charging>
  0.0000

> <r_epik_Ionization_Penalty_Neutral>
  0.0005

> <r_epik_State_Penalty>
  0.0003

> <r_epik_Charging_Adjusted_Penalty>
0.000325885

> <i_epik_Tot_Q>
0

> <i_epik_Tot_abs_Q>
0

> <s_lp_Force_Field>
OPLS3e

> <r_lp_Energy>
36.3985

> <b_lp_Chiralities_Consistent>
1

> <s_lp_Variant>
lig_eg5_CHEMBL1089056-1

> <s_i_glide_gridfile>
eg5-001-gridgen

> <i_i_glide_lignum>
35

> <i_i_glide_rotatable_bonds>
2

> <r_i_docking_score>
-8.81516948091918

> <r_i_glide_ligand_efficiency>
-0.367298728371633

> <r_i_glide_ligand_efficiency_sa>
-1.05947286521454

> <r_i_glide_ligand_efficiency_ln>
-2.10987455855375

> <r_i_glide_gscore>
-8.81549536591919

> <r_i_glide_lipo>
-5.51313525047545

> <r_i_glide_hbond>
0

> <r_i_glide_metal>
-0

> <r_i_glide_rewards>
-1.36865321076132

> <r_i_glide_evdw>
-41.3308525085449

> <r_i_glide_ecoul>
-0.320023238658905

> <r_i_glide_erotb>
0.180839206543667

> <r_i_glide_esite>
0

> <r_i_glide_emodel>
-57.2906549889265

> <r_i_glide_energy>
-41.6508757472038

> <r_i_glide_einternal>
2.1711323261261

> <i_i_glide_confnum>
1

> <i_i_glide_posenum>
35

> <r_i_glide_eff_state_penalty>
0.000325885

$$$$
