lig_eg5_CHEMBL1084677
                    3D
 Schrodinger Suite 2020-3.
 62 65  0  0  1  0            999 V2000
   27.8138    9.5413   24.9688 C   0  0  0  0  0  0
   27.6108   10.9207   24.3153 N   0  3  0  0  0  0
   26.2996   11.6332   24.7047 C   0  0  0  0  0  0
   25.9955   12.7791   23.7170 C   0  0  0  0  0  0
   27.4544   13.9608   23.4076 S   0  0  0  0  0  0
   28.5773   13.6066   24.2794 O   0  0  0  0  0  0
   27.6380   14.0398   21.9561 O   0  0  0  0  0  0
   26.8487   15.5172   23.9290 N   0  0  2  0  0  0
   26.8019   15.8715   25.3656 C   0  0  0  0  0  0
   26.5665   17.3818   25.5298 C   0  0  2  0  0  0
   27.8262   18.1733   25.1290 C   0  0  0  0  0  0
   27.6278   19.6730   25.3507 C   0  0  0  0  0  0
   27.0656   20.0153   26.7569 C   0  0  2  0  0  0
   28.0508   19.9222   27.9592 C   0  0  1  0  0  0
   29.4397   20.5370   27.8330 C   0  0  0  0  0  0
   30.4167   20.0724   28.7164 C   0  0  0  0  0  0
   31.6951   20.6060   28.6828 C   0  0  0  0  0  0
   32.0248   21.5547   27.7200 C   0  0  0  0  0  0
   31.0615   22.0238   26.8328 C   0  0  0  0  0  0
   29.7538   21.5520   26.9221 C   0  0  0  0  0  0
   27.3716   20.4441   29.1412 N   0  0  0  0  0  0
   26.0803   19.9865   29.4318 C   0  0  0  0  0  0
   25.5926   20.1971   30.7181 C   0  0  0  0  0  0
   24.3926   19.6175   31.1101 C   0  0  0  0  0  0
   23.7039   18.7736   30.2357 C   0  0  0  0  0  0
   22.4683   18.0333   30.7323 C   0  0  0  0  0  0
   22.7965   17.2665   31.7750 F   0  0  0  0  0  0
   21.5674   18.9305   31.1211 F   0  0  0  0  0  0
   21.9218   17.2496   29.7995 F   0  0  0  0  0  0
   24.1710   18.6189   28.9248 C   0  0  0  0  0  0
   25.3446   19.2440   28.4887 C   0  0  0  0  0  0
   25.8442   19.0872   27.0500 C   0  0  2  0  0  0
   26.2091   17.7107   26.8729 O   0  0  0  0  0  0
   28.3886   11.5290   24.5592 H   0  0  0  0  0  0
   28.8049    9.1975   24.6622 H   0  0  0  0  0  0
   27.0312    8.8796   24.5915 H   0  0  0  0  0  0
   27.7577    9.6438   26.0544 H   0  0  0  0  0  0
   25.5228   10.8667   24.6634 H   0  0  0  0  0  0
   26.4027   11.9766   25.7355 H   0  0  0  0  0  0
   25.7056   12.3889   22.7400 H   0  0  0  0  0  0
   25.1616   13.3821   24.0779 H   0  0  0  0  0  0
   26.1026   15.9081   23.3482 H   0  0  0  0  0  0
   26.0026   15.3089   25.8360 H   0  0  0  0  0  0
   27.7355   15.5754   25.8461 H   0  0  0  0  0  0
   25.7244   17.6445   24.8833 H   0  0  0  0  0  0
   28.6848   17.8195   25.7020 H   0  0  0  0  0  0
   28.0688   17.9938   24.0808 H   0  0  0  0  0  0
   28.5582   20.1828   25.1193 H   0  0  0  0  0  0
   26.9161   20.0385   24.6091 H   0  0  0  0  0  0
   26.6897   21.0390   26.7159 H   0  0  0  0  0  0
   28.2461   18.8620   28.1382 H   0  0  0  0  0  0
   30.1776   19.3164   29.4500 H   0  0  0  0  0  0
   32.4231   20.2681   29.4006 H   0  0  0  0  0  0
   33.0314   21.9464   27.6760 H   0  0  0  0  0  0
   31.3214   22.7698   26.0943 H   0  0  0  0  0  0
   29.0006   21.9691   26.2712 H   0  0  0  0  0  0
   27.9706   20.8254   29.8574 H   0  0  0  0  0  0
   26.1467   20.7899   31.4289 H   0  0  0  0  0  0
   24.0271   19.7723   32.1158 H   0  0  0  0  0  0
   23.6229   18.0037   28.2281 H   0  0  0  0  0  0
   25.0241   19.3418   26.3748 H   0  0  0  0  0  0
   27.6362   10.8067   23.3115 H   0  0  0  0  0  0
  1  2  1  0  0  0
  1 35  1  0  0  0
  1 36  1  0  0  0
  1 37  1  0  0  0
  2 34  1  0  0  0
  2  3  1  0  0  0
  2 62  1  0  0  0
  3  4  1  0  0  0
  3 38  1  0  0  0
  3 39  1  0  0  0
  4  5  1  0  0  0
  4 40  1  0  0  0
  4 41  1  0  0  0
  5  6  2  0  0  0
  5  7  2  0  0  0
  5  8  1  0  0  0
  8  9  1  0  0  0
  8 42  1  0  0  0
  9 10  1  0  0  0
  9 43  1  0  0  0
  9 44  1  0  0  0
 10 33  1  0  0  0
 10 11  1  0  0  0
 10 45  1  0  0  0
 11 12  1  0  0  0
 11 46  1  0  0  0
 11 47  1  0  0  0
 12 13  1  0  0  0
 12 48  1  0  0  0
 12 49  1  0  0  0
 13 32  1  0  0  0
 13 14  1  0  0  0
 13 50  1  0  0  0
 14 15  1  0  0  0
 14 21  1  0  0  0
 14 51  1  0  0  0
 15 20  1  0  0  0
 15 16  2  0  0  0
 16 17  1  0  0  0
 16 52  1  0  0  0
 17 18  2  0  0  0
 17 53  1  0  0  0
 18 19  1  0  0  0
 18 54  1  0  0  0
 19 20  2  0  0  0
 19 55  1  0  0  0
 20 56  1  0  0  0
 21 22  1  0  0  0
 21 57  1  0  0  0
 22 31  2  0  0  0
 22 23  1  0  0  0
 23 24  2  0  0  0
 23 58  1  0  0  0
 24 25  1  0  0  0
 24 59  1  0  0  0
 25 26  1  0  0  0
 25 30  2  0  0  0
 26 27  1  0  0  0
 26 28  1  0  0  0
 26 29  1  0  0  0
 30 31  1  0  0  0
 30 60  1  0  0  0
 31 32  1  0  0  0
 32 33  1  0  0  0
 32 61  1  0  0  0
M  CHG  1   2   1
M  END
> <s_m_source_file>
/home/user-home/yujie/0_PBCNetv2/data/FEP/eg5/inp_ligprep.csv

> <i_m_source_file_index>
13

> <i_lp_mmshare_version>
51139

> <i_f3d_flags>
0

> <s_epik_input>
W0NIM11bTkhdW0NIMl1bQ0gyXVMoPU8pKD1PKVtOSF1bQ0gyXVtDQEhdKFtDSDJdW0NIMl0xKU9bQ0BIXShbQ0BIXTEyKWMzYyhbY0hdW2NIXWMoQyhGKShGKUYpW2NIXTMpW05IXVtDQEBIXTJjNFtjSF1bY0hdW2NIXVtjSF1bY0hdNA==

> <s_epik_cmdline>
J2VwaWtfcHl0aG9uJywgJy1waHQnLCAnMi4wJywgJy1waCcsICc3LjQnLCAnLXRuJywgJzgnLCAnLW1hJywgJzIwMCcsICctaW1hZScsICc8aW5maWxlLm1hZT4nLCAnLW9tYWUnLCAnPG91dGZpbGUubWFlPic=

> <r_epik_Ionization_Penalty>
  0.0112

> <r_epik_Ionization_Penalty_Charging>
  0.0108

> <r_epik_Ionization_Penalty_Neutral>
  0.0004

> <r_epik_State_Penalty>
  0.0083

> <r_epik_Charging_Adjusted_Penalty>
0.019166

> <i_epik_Tot_Q>
1

> <i_epik_Tot_abs_Q>
1

> <s_lp_Force_Field>
OPLS3e

> <r_lp_Energy>
37.4684

> <b_lp_Chiralities_Consistent>
1

> <s_lp_Variant>
lig_eg5_CHEMBL1084677-1

> <s_i_glide_gridfile>
eg5-001-gridgen

> <i_i_glide_lignum>
16

> <i_i_glide_rotatable_bonds>
8

> <r_i_docking_score>
-7.57127420994308

> <r_i_glide_ligand_efficiency>
-0.229432551816457

> <r_i_glide_ligand_efficiency_sa>
-0.735912785512124

> <r_i_glide_ligand_efficiency_ln>
-1.68381218233153

> <r_i_glide_gscore>
-7.57959206994308

> <r_i_glide_lipo>
-4.22613065389081

> <r_i_glide_hbond>
0

> <r_i_glide_metal>
-0

> <r_i_glide_rewards>
-1.30043463285416

> <r_i_glide_evdw>
-45.7365646362305

> <r_i_glide_ecoul>
-1.57054817676544

> <r_i_glide_erotb>
0.518976211451783

> <r_i_glide_esite>
-0.0495925363235636

> <r_i_glide_emodel>
-64.3283276924158

> <r_i_glide_energy>
-47.3071128129959

> <r_i_glide_einternal>
13.6994934082031

> <i_i_glide_confnum>
16

> <i_i_glide_posenum>
393

> <r_i_glide_eff_state_penalty>
0.00831786

$$$$
