lig_eg5_CHEMBL1086410
                    3D
 Schrodinger Suite 2020-3.
 60 63  0  0  1  0            999 V2000
   26.7597   14.7694   23.5877 C   0  0  0  0  0  0
   27.8055   14.8447   24.7153 N   0  3  0  0  0  0
   27.2864   15.4492   26.0387 C   0  0  0  0  0  0
   26.9840   16.9574   25.9246 C   0  0  2  0  0  0
   28.2184   17.7660   25.4711 C   0  0  0  0  0  0
   27.9270   19.2710   25.4845 C   0  0  0  0  0  0
   27.3026   19.7537   26.8191 C   0  0  2  0  0  0
   28.2637   19.8522   28.0440 C   0  0  1  0  0  0
   29.6204   20.5303   27.8561 C   0  0  0  0  0  0
   29.8445   21.5142   26.8863 C   0  0  0  0  0  0
   31.1214   22.0425   26.7150 C   0  0  0  0  0  0
   32.1546   21.6437   27.5548 C   0  0  0  0  0  0
   31.9171   20.7402   28.5805 C   0  0  0  0  0  0
   30.6604   20.1625   28.7158 C   0  0  0  0  0  0
   27.5296   20.4635   29.1457 N   0  0  0  0  0  0
   26.2472   19.9909   29.4560 C   0  0  0  0  0  0
   25.7198   20.3236   30.6985 C   0  0  0  0  0  0
   24.5237   19.7623   31.1155 C   0  0  0  0  0  0
   23.8560   18.8151   30.3367 C   0  0  0  0  0  0
   22.5808   18.1469   30.9084 C   0  0  0  0  0  0
   21.8660   17.2559   29.8688 C   0  0  0  0  0  0
   21.6002   19.2313   31.4005 C   0  0  0  0  0  0
   22.9207   17.2448   32.1151 C   0  0  0  0  0  0
   24.3823   18.5249   29.0635 C   0  0  0  0  0  0
   25.5583   19.1243   28.5872 C   0  0  0  0  0  0
   26.1121   18.8137   27.1907 C   0  0  2  0  0  0
   26.5411   17.4453   27.1929 O   0  0  0  0  0  0
   28.1411   13.9071   24.9028 H   0  0  0  0  0  0
   27.2376   14.2552   22.7516 H   0  0  0  0  0  0
   26.4804   15.7874   23.3109 H   0  0  0  0  0  0
   25.9062   14.2017   23.9640 H   0  0  0  0  0  0
   26.4063   14.8683   26.3144 H   0  0  0  0  0  0
   28.0784   15.2523   26.7636 H   0  0  0  0  0  0
   26.1730   17.0753   25.2032 H   0  0  0  0  0  0
   29.0667   17.5470   26.1222 H   0  0  0  0  0  0
   28.5238   17.4718   24.4670 H   0  0  0  0  0  0
   28.8338   19.8130   25.2289 H   0  0  0  0  0  0
   27.2279   19.4968   24.6773 H   0  0  0  0  0  0
   26.8843   20.7466   26.6342 H   0  0  0  0  0  0
   28.5096   18.8318   28.3478 H   0  0  0  0  0  0
   29.0458   21.8483   26.2405 H   0  0  0  0  0  0
   31.3115   22.7489   25.9161 H   0  0  0  0  0  0
   33.1495   22.0436   27.4243 H   0  0  0  0  0  0
   32.7180   20.4657   29.2470 H   0  0  0  0  0  0
   30.4928   19.4324   29.4939 H   0  0  0  0  0  0
   28.0855   20.9682   29.8188 H   0  0  0  0  0  0
   26.2419   20.9976   31.3587 H   0  0  0  0  0  0
   24.1464   20.0325   32.0901 H   0  0  0  0  0  0
   20.9478   16.8177   30.2626 H   0  0  0  0  0  0
   22.5211   16.4444   29.5675 H   0  0  0  0  0  0
   21.6065   17.8017   28.9667 H   0  0  0  0  0  0
   21.5276   20.0439   30.6966 H   0  0  0  0  0  0
   21.8923   19.6670   32.3564 H   0  0  0  0  0  0
   20.5946   18.8442   31.5142 H   0  0  0  0  0  0
   22.0214   16.7795   32.5236 H   0  0  0  0  0  0
   23.3767   17.8046   32.9302 H   0  0  0  0  0  0
   23.6024   16.4439   31.8338 H   0  0  0  0  0  0
   23.8871   17.8235   28.4115 H   0  0  0  0  0  0
   25.3080   18.9440   26.4633 H   0  0  0  0  0  0
   28.6052   15.3808   24.4057 H   0  0  0  0  0  0
  1  2  1  0  0  0
  1 29  1  0  0  0
  1 30  1  0  0  0
  1 31  1  0  0  0
  2 28  1  0  0  0
  2  3  1  0  0  0
  2 60  1  0  0  0
  3  4  1  0  0  0
  3 32  1  0  0  0
  3 33  1  0  0  0
  4 27  1  0  0  0
  4  5  1  0  0  0
  4 34  1  0  0  0
  5  6  1  0  0  0
  5 35  1  0  0  0
  5 36  1  0  0  0
  6  7  1  0  0  0
  6 37  1  0  0  0
  6 38  1  0  0  0
  7 26  1  0  0  0
  7  8  1  0  0  0
  7 39  1  0  0  0
  8  9  1  0  0  0
  8 15  1  0  0  0
  8 40  1  0  0  0
  9 14  1  0  0  0
  9 10  2  0  0  0
 10 11  1  0  0  0
 10 41  1  0  0  0
 11 12  2  0  0  0
 11 42  1  0  0  0
 12 13  1  0  0  0
 12 43  1  0  0  0
 13 14  2  0  0  0
 13 44  1  0  0  0
 14 45  1  0  0  0
 15 16  1  0  0  0
 15 46  1  0  0  0
 16 25  2  0  0  0
 16 17  1  0  0  0
 17 18  2  0  0  0
 17 47  1  0  0  0
 18 19  1  0  0  0
 18 48  1  0  0  0
 19 20  1  0  0  0
 19 24  2  0  0  0
 20 21  1  0  0  0
 20 22  1  0  0  0
 20 23  1  0  0  0
 21 49  1  0  0  0
 21 50  1  0  0  0
 21 51  1  0  0  0
 22 52  1  0  0  0
 22 53  1  0  0  0
 22 54  1  0  0  0
 23 55  1  0  0  0
 23 56  1  0  0  0
 23 57  1  0  0  0
 24 25  1  0  0  0
 24 58  1  0  0  0
 25 26  1  0  0  0
 26 27  1  0  0  0
 26 59  1  0  0  0
M  CHG  1   2   1
M  END
> <s_m_source_file>
/home/user-home/yujie/0_PBCNetv2/data/FEP/eg5/inp_ligprep.csv

> <i_m_source_file_index>
3

> <i_lp_mmshare_version>
51139

> <i_f3d_flags>
0

> <s_epik_input>
W0NIM11bTkhdW0NIMl1bQ0BIXShbQ0gyXVtDSDJdMSlPW0NASF0oW0NASF0xMiljM2MoW2NIXVtjSF1jKFtjSF0zKUMoW0NIM10pKFtDSDNdKVtDSDNdKVtOSF1bQ0BASF0yYzRbY0hdW2NIXVtjSF1bY0hdW2NIXTQ=

> <s_epik_cmdline>
J2VwaWtfcHl0aG9uJywgJy1waHQnLCAnMi4wJywgJy1waCcsICc3LjQnLCAnLXRuJywgJzgnLCAnLW1hJywgJzIwMCcsICctaW1hZScsICc8aW5maWxlLm1hZT4nLCAnLW9tYWUnLCAnPG91dGZpbGUubWFlPic=

> <r_lp_tautomer_probability>
1

> <r_epik_Ionization_Penalty>
  0.0027

> <r_epik_Ionization_Penalty_Charging>
  0.0023

> <r_epik_Ionization_Penalty_Neutral>
  0.0004

> <r_epik_State_Penalty>
 -0.0000

> <r_epik_Charging_Adjusted_Penalty>
0.00233856

> <i_epik_Tot_Q>
1

> <i_epik_Tot_abs_Q>
1

> <s_lp_Force_Field>
OPLS3e

> <r_lp_Energy>
42.5693

> <b_lp_Chiralities_Consistent>
1

> <s_lp_Variant>
lig_eg5_CHEMBL1086410-1

> <s_i_glide_gridfile>
eg5-001-gridgen

> <i_i_glide_lignum>
3

> <i_i_glide_rotatable_bonds>
4

> <r_i_docking_score>
-8.59671353658791

> <r_i_glide_ligand_efficiency>
-0.318396797651404

> <r_i_glide_ligand_efficiency_sa>
-0.955190391904828

> <r_i_glide_ligand_efficiency_ln>
-2.00117318341838

> <r_i_glide_gscore>
-8.59671353658791

> <r_i_glide_lipo>
-5.39361598014006

> <r_i_glide_hbond>
0

> <r_i_glide_metal>
-0

> <r_i_glide_rewards>
-1.05182334171185

> <r_i_glide_evdw>
-42.6810340881348

> <r_i_glide_ecoul>
-2.03450489044189

> <r_i_glide_erotb>
0.287953223237028

> <r_i_glide_esite>
0

> <r_i_glide_emodel>
-62.1649683836188

> <r_i_glide_energy>
-44.7155389785767

> <r_i_glide_einternal>
7.23695611953735

> <i_i_glide_confnum>
2

> <i_i_glide_posenum>
1

> <r_i_glide_eff_state_penalty>
-0

$$$$
