lig_eg5_CHEMBL1084676
                    3D
 Schrodinger Suite 2020-3.
 64 67  0  0  1  0            999 V2000
   22.3137   14.4428   22.3959 C   0  0  0  0  0  0
   23.5762   13.7145   22.4687 N   0  0  0  0  0  0
   23.3484   12.3074   22.1416 C   0  0  0  0  0  0
   24.5652   14.3397   21.5810 C   0  0  0  0  0  0
   26.0054   13.8062   21.7873 C   0  0  0  0  0  0
   26.4424   13.8420   23.1473 O   0  0  0  0  0  0
   26.6098   15.0026   23.8096 C   0  0  0  0  0  0
   26.5645   16.1152   23.2832 O   0  0  0  0  0  0
   26.8018   14.7062   25.1492 N   0  0  0  0  0  0
   26.8340   15.6439   26.2885 C   0  0  0  0  0  0
   26.6389   17.1551   26.0634 C   0  0  2  0  0  0
   27.9310   17.8640   25.6082 C   0  0  0  0  0  0
   27.7231   19.3846   25.5834 C   0  0  0  0  0  0
   27.1182   19.9327   26.9103 C   0  0  2  0  0  0
   28.0890   19.9796   28.1291 C   0  0  1  0  0  0
   29.4681   20.6086   27.9132 C   0  0  0  0  0  0
   29.7108   21.5683   26.9235 C   0  0  0  0  0  0
   31.0023   22.0434   26.7155 C   0  0  0  0  0  0
   32.0323   21.6344   27.5558 C   0  0  0  0  0  0
   31.7845   20.7419   28.5911 C   0  0  0  0  0  0
   30.5118   20.2079   28.7523 C   0  0  0  0  0  0
   27.3888   20.5954   29.2572 N   0  0  0  0  0  0
   26.0945   20.1534   29.5738 C   0  0  0  0  0  0
   25.6016   20.4433   30.8429 C   0  0  0  0  0  0
   24.3853   19.9135   31.2604 C   0  0  0  0  0  0
   23.6813   19.0337   30.4397 C   0  0  0  0  0  0
   22.4339   18.3431   30.9896 C   0  0  0  0  0  0
   21.7826   17.6440   30.0608 F   0  0  0  0  0  0
   22.8023   17.5014   31.9566 F   0  0  0  0  0  0
   21.6022   19.2459   31.5100 F   0  0  0  0  0  0
   24.1564   18.7896   29.1451 C   0  0  0  0  0  0
   25.3491   19.3633   28.6815 C   0  0  0  0  0  0
   25.8731   19.0691   27.2809 C   0  0  2  0  0  0
   26.2424   17.6955   27.3151 O   0  0  0  0  0  0
   22.4541   15.4964   22.6380 H   0  0  0  0  0  0
   21.6006   14.0444   23.1147 H   0  0  0  0  0  0
   21.8631   14.3838   21.4009 H   0  0  0  0  0  0
   24.2595   11.7245   22.2704 H   0  0  0  0  0  0
   23.0084   12.1843   21.1105 H   0  0  0  0  0  0
   22.5933   11.8730   22.7986 H   0  0  0  0  0  0
   24.2698   14.2137   20.5377 H   0  0  0  0  0  0
   24.5741   15.4141   21.7604 H   0  0  0  0  0  0
   26.0656   12.7739   21.4475 H   0  0  0  0  0  0
   26.7024   14.3677   21.1622 H   0  0  0  0  0  0
   26.8320   13.7227   25.3761 H   0  0  0  0  0  0
   26.0148   15.3451   26.9472 H   0  0  0  0  0  0
   27.7572   15.4751   26.8442 H   0  0  0  0  0  0
   25.8240   17.3062   25.3546 H   0  0  0  0  0  0
   28.7481   17.6120   26.2858 H   0  0  0  0  0  0
   28.2466   17.5137   24.6273 H   0  0  0  0  0  0
   28.6629   19.8630   25.3186 H   0  0  0  0  0  0
   27.0409   19.6269   24.7658 H   0  0  0  0  0  0
   26.7605   20.9451   26.7161 H   0  0  0  0  0  0
   28.3014   18.9462   28.4158 H   0  0  0  0  0  0
   28.9126   21.9198   26.2847 H   0  0  0  0  0  0
   31.2022   22.7417   25.9157 H   0  0  0  0  0  0
   33.0323   22.0179   27.4129 H   0  0  0  0  0  0
   32.5852   20.4473   29.2502 H   0  0  0  0  0  0
   30.3314   19.4922   29.5410 H   0  0  0  0  0  0
   27.9814   21.0343   29.9447 H   0  0  0  0  0  0
   26.1627   21.0694   31.5152 H   0  0  0  0  0  0
   24.0156   20.1298   32.2531 H   0  0  0  0  0  0
   23.6053   18.1333   28.4881 H   0  0  0  0  0  0
   25.0752   19.2350   26.5549 H   0  0  0  0  0  0
  1  2  1  0  0  0
  1 35  1  0  0  0
  1 36  1  0  0  0
  1 37  1  0  0  0
  2  3  1  0  0  0
  2  4  1  0  0  0
  3 38  1  0  0  0
  3 39  1  0  0  0
  3 40  1  0  0  0
  4  5  1  0  0  0
  4 41  1  0  0  0
  4 42  1  0  0  0
  5  6  1  0  0  0
  5 43  1  0  0  0
  5 44  1  0  0  0
  6  7  1  0  0  0
  7  8  2  0  0  0
  7  9  1  0  0  0
  9 10  1  0  0  0
  9 45  1  0  0  0
 10 11  1  0  0  0
 10 46  1  0  0  0
 10 47  1  0  0  0
 11 34  1  0  0  0
 11 12  1  0  0  0
 11 48  1  0  0  0
 12 13  1  0  0  0
 12 49  1  0  0  0
 12 50  1  0  0  0
 13 14  1  0  0  0
 13 51  1  0  0  0
 13 52  1  0  0  0
 14 33  1  0  0  0
 14 15  1  0  0  0
 14 53  1  0  0  0
 15 16  1  0  0  0
 15 22  1  0  0  0
 15 54  1  0  0  0
 16 21  1  0  0  0
 16 17  2  0  0  0
 17 18  1  0  0  0
 17 55  1  0  0  0
 18 19  2  0  0  0
 18 56  1  0  0  0
 19 20  1  0  0  0
 19 57  1  0  0  0
 20 21  2  0  0  0
 20 58  1  0  0  0
 21 59  1  0  0  0
 22 23  1  0  0  0
 22 60  1  0  0  0
 23 32  2  0  0  0
 23 24  1  0  0  0
 24 25  2  0  0  0
 24 61  1  0  0  0
 25 26  1  0  0  0
 25 62  1  0  0  0
 26 27  1  0  0  0
 26 31  2  0  0  0
 27 28  1  0  0  0
 27 29  1  0  0  0
 27 30  1  0  0  0
 31 32  1  0  0  0
 31 63  1  0  0  0
 32 33  1  0  0  0
 33 34  1  0  0  0
 33 64  1  0  0  0
M  END
> <s_m_source_file>
/home/user-home/yujie/0_PBCNetv2/data/FEP/eg5/inp_ligprep.csv

> <i_m_source_file_index>
18

> <i_lp_mmshare_version>
51139

> <i_f3d_flags>
0

> <s_epik_input>
W0NIM11OKFtDSDNdKVtDSDJdW0NIMl1PQyg9TylbTkhdW0NIMl1bQ0BIXShbQ0gyXVtDSDJdMSlPW0NASF0oW0NASF0xMiljM2MoW2NIXVtjSF1jKEMoRikoRilGKVtjSF0zKVtOSF1bQ0BASF0yYzRbY0hdW2NIXVtjSF1bY0hdW2NIXTQ=

> <s_epik_cmdline>
J2VwaWtfcHl0aG9uJywgJy1waHQnLCAnMi4wJywgJy1waCcsICc3LjQnLCAnLXRuJywgJzgnLCAnLW1hJywgJzIwMCcsICctaW1hZScsICc8aW5maWxlLm1hZT4nLCAnLW9tYWUnLCAnPG91dGZpbGUubWFlPic=

> <r_epik_Ionization_Penalty>
  1.5035

> <r_epik_Ionization_Penalty_Charging>
  0.0000

> <r_epik_Ionization_Penalty_Neutral>
  1.5035

> <r_epik_State_Penalty>
  1.5939

> <r_epik_Charging_Adjusted_Penalty>
1.59395

> <i_epik_Tot_Q>
0

> <i_epik_Tot_abs_Q>
0

> <s_epik_Chemistry_Notes>
This compound has an ester and may undergo hydrolysis at high or low pH.

> <s_lp_Force_Field>
OPLS3e

> <r_lp_Energy>
35.6219

> <b_lp_Chiralities_Consistent>
1

> <s_lp_Variant>
lig_eg5_CHEMBL1084676-2

> <s_i_glide_gridfile>
eg5-001-gridgen

> <i_i_glide_lignum>
25

> <i_i_glide_rotatable_bonds>
9

> <r_i_docking_score>
-5.76906033494733

> <r_i_glide_ligand_efficiency>
-0.16967824514551

> <r_i_glide_ligand_efficiency_sa>
-0.54969164474731

> <r_i_glide_ligand_efficiency_ln>
-1.27454724465116

> <r_i_glide_gscore>
-7.36301033494733

> <r_i_glide_lipo>
-4.24784655293807

> <r_i_glide_hbond>
0

> <r_i_glide_metal>
-0

> <r_i_glide_rewards>
-1.45700331240815

> <r_i_glide_evdw>
-45.8574409484863

> <r_i_glide_ecoul>
0.0855414271354675

> <r_i_glide_erotb>
0.62188036375289

> <r_i_glide_esite>
0

> <r_i_glide_emodel>
-58.4718714749849

> <r_i_glide_energy>
-45.7718995213509

> <r_i_glide_einternal>
8.48590850830078

> <i_i_glide_confnum>
76

> <i_i_glide_posenum>
9

> <r_i_glide_eff_state_penalty>
1.59395

$$$$
