lig_eg5_CHEMBL1085895
                    3D
 Schrodinger Suite 2020-3.
 61 64  0  0  1  0            999 V2000
   29.0954   15.4063   23.9120 O   0  0  0  0  0  0
   28.0321   14.7894   23.8547 C   0  0  0  0  0  0
   27.7122   13.9451   22.8624 N   0  0  0  0  0  0
   28.6138   13.5496   21.7774 C   0  0  0  0  0  0
   29.8537   12.7523   22.2390 C   0  0  0  0  0  0
   29.5228   11.4455   22.9759 C   0  0  0  0  0  0
   30.6979   10.8897   23.5152 O   0  0  0  0  0  0
   27.0643   14.8647   24.7811 N   0  0  0  0  0  0
   27.1325   15.6617   26.0088 C   0  0  0  0  0  0
   26.7696   17.1481   25.8376 C   0  0  2  0  0  0
   27.9494   18.0038   25.3294 C   0  0  0  0  0  0
   27.6282   19.4995   25.3936 C   0  0  0  0  0  0
   27.0699   19.9217   26.7757 C   0  0  2  0  0  0
   28.0564   19.9069   27.9829 C   0  0  1  0  0  0
   29.4349   20.5409   27.8219 C   0  0  0  0  0  0
   29.7198   21.5112   26.8551 C   0  0  0  0  0  0
   31.0184   21.9964   26.7214 C   0  0  0  0  0  0
   32.0057   21.5892   27.6123 C   0  0  0  0  0  0
   31.7054   20.6902   28.6298 C   0  0  0  0  0  0
   30.4330   20.1430   28.7142 C   0  0  0  0  0  0
   27.3621   20.4642   29.1392 N   0  0  0  0  0  0
   26.0694   20.0104   29.4348 C   0  0  0  0  0  0
   25.5905   20.2428   30.7167 C   0  0  0  0  0  0
   24.3893   19.6790   31.1189 C   0  0  0  0  0  0
   23.6753   18.8430   30.2638 C   0  0  0  0  0  0
   22.4125   18.1709   30.7843 C   0  0  0  0  0  0
   21.7640   17.4915   29.8399 F   0  0  0  0  0  0
   22.7334   17.3226   31.7623 F   0  0  0  0  0  0
   21.6000   19.1013   31.2795 F   0  0  0  0  0  0
   24.1436   18.6464   28.9590 C   0  0  0  0  0  0
   25.3310   19.2431   28.5145 C   0  0  0  0  0  0
   25.8647   18.9959   27.1062 C   0  0  2  0  0  0
   26.2942   17.6359   27.0907 O   0  0  0  0  0  0
   26.7861   13.5488   22.8421 H   0  0  0  0  0  0
   28.0210   12.9228   21.1093 H   0  0  0  0  0  0
   28.9127   14.4253   21.1980 H   0  0  0  0  0  0
   30.4714   12.5236   21.3693 H   0  0  0  0  0  0
   30.4721   13.3866   22.8751 H   0  0  0  0  0  0
   28.8191   11.6254   23.7902 H   0  0  0  0  0  0
   29.0207   10.7425   22.3107 H   0  0  0  0  0  0
   30.7999   11.2395   24.4281 H   0  0  0  0  0  0
   26.2465   14.2865   24.6687 H   0  0  0  0  0  0
   26.4031   15.2448   26.7021 H   0  0  0  0  0  0
   28.0995   15.5451   26.5035 H   0  0  0  0  0  0
   25.9468   17.2043   25.1214 H   0  0  0  0  0  0
   28.8443   17.7900   25.9152 H   0  0  0  0  0  0
   28.1912   17.7382   24.3012 H   0  0  0  0  0  0
   28.5225   20.0489   25.1123 H   0  0  0  0  0  0
   26.8852   19.7353   24.6288 H   0  0  0  0  0  0
   26.6786   20.9350   26.6815 H   0  0  0  0  0  0
   28.2728   18.8613   28.2140 H   0  0  0  0  0  0
   28.9507   21.8773   26.1928 H   0  0  0  0  0  0
   31.2534   22.7068   25.9402 H   0  0  0  0  0  0
   33.0077   21.9865   27.5287 H   0  0  0  0  0  0
   32.4561   20.4034   29.3461 H   0  0  0  0  0  0
   30.2185   19.4211   29.4893 H   0  0  0  0  0  0
   27.9507   20.8782   29.8456 H   0  0  0  0  0  0
   26.1550   20.8397   31.4171 H   0  0  0  0  0  0
   24.0417   19.8541   32.1273 H   0  0  0  0  0  0
   23.5898   18.0155   28.2787 H   0  0  0  0  0  0
   25.0627   19.1479   26.3803 H   0  0  0  0  0  0
  1  2  2  0  0  0
  2  3  1  0  0  0
  2  8  1  0  0  0
  3  4  1  0  0  0
  3 34  1  0  0  0
  4  5  1  0  0  0
  4 35  1  0  0  0
  4 36  1  0  0  0
  5  6  1  0  0  0
  5 37  1  0  0  0
  5 38  1  0  0  0
  6  7  1  0  0  0
  6 39  1  0  0  0
  6 40  1  0  0  0
  7 41  1  0  0  0
  8  9  1  0  0  0
  8 42  1  0  0  0
  9 10  1  0  0  0
  9 43  1  0  0  0
  9 44  1  0  0  0
 10 33  1  0  0  0
 10 11  1  0  0  0
 10 45  1  0  0  0
 11 12  1  0  0  0
 11 46  1  0  0  0
 11 47  1  0  0  0
 12 13  1  0  0  0
 12 48  1  0  0  0
 12 49  1  0  0  0
 13 32  1  0  0  0
 13 14  1  0  0  0
 13 50  1  0  0  0
 14 15  1  0  0  0
 14 21  1  0  0  0
 14 51  1  0  0  0
 15 20  1  0  0  0
 15 16  2  0  0  0
 16 17  1  0  0  0
 16 52  1  0  0  0
 17 18  2  0  0  0
 17 53  1  0  0  0
 18 19  1  0  0  0
 18 54  1  0  0  0
 19 20  2  0  0  0
 19 55  1  0  0  0
 20 56  1  0  0  0
 21 22  1  0  0  0
 21 57  1  0  0  0
 22 31  2  0  0  0
 22 23  1  0  0  0
 23 24  2  0  0  0
 23 58  1  0  0  0
 24 25  1  0  0  0
 24 59  1  0  0  0
 25 26  1  0  0  0
 25 30  2  0  0  0
 26 27  1  0  0  0
 26 28  1  0  0  0
 26 29  1  0  0  0
 30 31  1  0  0  0
 30 60  1  0  0  0
 31 32  1  0  0  0
 32 33  1  0  0  0
 32 61  1  0  0  0
M  END
> <s_m_source_file>
/home/user-home/yujie/0_PBCNetv2/data/FEP/eg5/inp_ligprep.csv

> <i_m_source_file_index>
5

> <i_lp_mmshare_version>
51139

> <i_f3d_flags>
0

> <s_epik_input>
W09IXVtDSDJdW0NIMl1bQ0gyXVtOSF1DKD1PKVtOSF1bQ0gyXVtDQEhdKFtDSDJdW0NIMl0xKU9bQ0BIXShbQ0BIXTEyKWMzYyhbY0hdW2NIXWMoQyhGKShGKUYpW2NIXTMpW05IXVtDQEBIXTJjNFtjSF1bY0hdW2NIXVtjSF1bY0hdNA==

> <s_epik_cmdline>
J2VwaWtfcHl0aG9uJywgJy1waHQnLCAnMi4wJywgJy1waCcsICc3LjQnLCAnLXRuJywgJzgnLCAnLW1hJywgJzIwMCcsICctaW1hZScsICc8aW5maWxlLm1hZT4nLCAnLW9tYWUnLCAnPG91dGZpbGUubWFlPic=

> <r_lp_tautomer_probability>
1

> <r_epik_Ionization_Penalty>
  0.0000

> <r_epik_Ionization_Penalty_Charging>
  0.0000

> <r_epik_Ionization_Penalty_Neutral>
  0.0000

> <r_epik_State_Penalty>
 -0.0000

> <r_epik_Charging_Adjusted_Penalty>
0

> <i_epik_Tot_Q>
0

> <i_epik_Tot_abs_Q>
0

> <s_lp_Force_Field>
OPLS3e

> <r_lp_Energy>
37.2291

> <b_lp_Chiralities_Consistent>
1

> <s_lp_Variant>
lig_eg5_CHEMBL1085895-1

> <s_i_glide_gridfile>
eg5-001-gridgen

> <i_i_glide_lignum>
6

> <i_i_glide_rotatable_bonds>
10

> <r_i_docking_score>
-8.04979939790026

> <r_i_glide_ligand_efficiency>
-0.243933315087887

> <r_i_glide_ligand_efficiency_sa>
-0.782424481462167

> <r_i_glide_ligand_efficiency_ln>
-1.79023370646238

> <r_i_glide_gscore>
-8.04979939790026

> <r_i_glide_lipo>
-4.13925601464898

> <r_i_glide_hbond>
-0.16

> <r_i_glide_metal>
-0

> <r_i_glide_rewards>
-1.50998294092801

> <r_i_glide_evdw>
-45.5327529907227

> <r_i_glide_ecoul>
-4.76026916503906

> <r_i_glide_erotb>
0.75045559535857

> <r_i_glide_esite>
-0.000338013389838205

> <r_i_glide_emodel>
-67.5221443623781

> <r_i_glide_energy>
-50.2930221557617

> <r_i_glide_einternal>
8.44636154174805

> <i_i_glide_confnum>
112

> <i_i_glide_posenum>
3

> <r_i_glide_eff_state_penalty>
-0

$$$$
