lig_eg5_CHEMBL1084935
                    3D
 Schrodinger Suite 2020-3.
 69 72  0  0  1  0            999 V2000
   24.9472   16.0154   23.1165 C   0  0  0  0  0  0
   25.7385   14.7929   23.6064 C   0  0  0  0  0  0
   27.0827   15.0975   24.1325 N   0  0  2  0  0  0
   27.9098   13.8866   23.9626 C   0  0  0  0  0  0
   29.4316   14.0901   24.1232 C   0  0  0  0  0  0
   29.9594   14.9582   23.1345 O   0  0  0  0  0  0
   27.0823   15.5965   25.5314 C   0  0  0  0  0  0
   26.8514   17.1250   25.6638 C   0  0  2  0  0  0
   28.1223   17.8952   25.2598 C   0  0  0  0  0  0
   27.9194   19.4073   25.3967 C   0  0  0  0  0  0
   27.3102   19.8381   26.7611 C   0  0  2  0  0  0
   28.2870   19.8785   27.9775 C   0  0  1  0  0  0
   29.6503   20.5543   27.8187 C   0  0  0  0  0  0
   30.6487   20.2056   28.7335 C   0  0  0  0  0  0
   31.9118   20.7747   28.6506 C   0  0  0  0  0  0
   32.2009   21.6438   27.6082 C   0  0  0  0  0  0
   31.2102   22.0370   26.7157 C   0  0  0  0  0  0
   29.9218   21.5228   26.8447 C   0  0  0  0  0  0
   27.5719   20.4440   29.1179 N   0  0  0  0  0  0
   26.2937   19.9666   29.4300 C   0  0  0  0  0  0
   25.7938   20.2516   30.6964 C   0  0  0  0  0  0
   24.5941   19.6969   31.1152 C   0  0  0  0  0  0
   23.8949   18.8015   30.3016 C   0  0  0  0  0  0
   22.6031   18.1499   30.8568 C   0  0  0  0  0  0
   21.8934   17.2597   29.8129 C   0  0  0  0  0  0
   21.6278   19.2501   31.3286 C   0  0  0  0  0  0
   22.9185   17.2455   32.0704 C   0  0  0  0  0  0
   24.4022   18.5498   29.0080 C   0  0  0  0  0  0
   25.5840   19.1446   28.5371 C   0  0  0  0  0  0
   26.1080   18.8981   27.1113 C   0  0  2  0  0  0
   26.4971   17.5171   26.9999 O   0  0  0  0  0  0
   24.1813   15.7054   22.4059 H   0  0  0  0  0  0
   25.5909   16.7312   22.6036 H   0  0  0  0  0  0
   24.4232   16.5287   23.9158 H   0  0  0  0  0  0
   25.1548   14.2093   24.3191 H   0  0  0  0  0  0
   25.8355   14.1556   22.7260 H   0  0  0  0  0  0
   27.5917   13.1650   24.7159 H   0  0  0  0  0  0
   27.7369   13.3472   23.0299 H   0  0  0  0  0  0
   29.6857   14.4427   25.1202 H   0  0  0  0  0  0
   29.9282   13.1260   24.0136 H   0  0  0  0  0  0
   29.7791   14.5847   22.2684 H   0  0  0  0  0  0
   26.3823   15.0374   26.1435 H   0  0  0  0  0  0
   28.0412   15.3903   26.0034 H   0  0  0  0  0  0
   26.0465   17.4122   24.9950 H   0  0  0  0  0  0
   28.9684   17.5703   25.8686 H   0  0  0  0  0  0
   28.3929   17.6520   24.2301 H   0  0  0  0  0  0
   28.8495   19.9150   25.1594 H   0  0  0  0  0  0
   27.2286   19.7212   24.6124 H   0  0  0  0  0  0
   26.9022   20.8425   26.6226 H   0  0  0  0  0  0
   28.5288   18.8424   28.2286 H   0  0  0  0  0  0
   30.4409   19.4915   29.5193 H   0  0  0  0  0  0
   32.6677   20.5190   29.3797 H   0  0  0  0  0  0
   33.1988   22.0437   27.5165 H   0  0  0  0  0  0
   31.4403   22.7414   25.9274 H   0  0  0  0  0  0
   29.1513   21.8611   26.1678 H   0  0  0  0  0  0
   28.1469   20.9056   29.8051 H   0  0  0  0  0  0
   26.3407   20.8883   31.3739 H   0  0  0  0  0  0
   24.2345   19.9341   32.1045 H   0  0  0  0  0  0
   20.9710   16.8310   30.2021 H   0  0  0  0  0  0
   22.5490   16.4448   29.5218 H   0  0  0  0  0  0
   21.6386   17.8010   28.9064 H   0  0  0  0  0  0
   21.5274   20.0336   30.5872 H   0  0  0  0  0  0
   21.9543   19.7313   32.2492 H   0  0  0  0  0  0
   20.6340   18.8610   31.5152 H   0  0  0  0  0  0
   22.0143   16.7767   32.4634 H   0  0  0  0  0  0
   23.3614   17.8024   32.8931 H   0  0  0  0  0  0
   23.6025   16.4454   31.7981 H   0  0  0  0  0  0
   23.8822   17.8900   28.3323 H   0  0  0  0  0  0
   25.2884   19.0965   26.4166 H   0  0  0  0  0  0
  1  2  1  0  0  0
  1 32  1  0  0  0
  1 33  1  0  0  0
  1 34  1  0  0  0
  2  3  1  0  0  0
  2 35  1  0  0  0
  2 36  1  0  0  0
  3  4  1  0  0  0
  3  7  1  0  0  0
  4  5  1  0  0  0
  4 37  1  0  0  0
  4 38  1  0  0  0
  5  6  1  0  0  0
  5 39  1  0  0  0
  5 40  1  0  0  0
  6 41  1  0  0  0
  7  8  1  0  0  0
  7 42  1  0  0  0
  7 43  1  0  0  0
  8 31  1  0  0  0
  8  9  1  0  0  0
  8 44  1  0  0  0
  9 10  1  0  0  0
  9 45  1  0  0  0
  9 46  1  0  0  0
 10 11  1  0  0  0
 10 47  1  0  0  0
 10 48  1  0  0  0
 11 30  1  0  0  0
 11 12  1  0  0  0
 11 49  1  0  0  0
 12 13  1  0  0  0
 12 19  1  0  0  0
 12 50  1  0  0  0
 13 18  1  0  0  0
 13 14  2  0  0  0
 14 15  1  0  0  0
 14 51  1  0  0  0
 15 16  2  0  0  0
 15 52  1  0  0  0
 16 17  1  0  0  0
 16 53  1  0  0  0
 17 18  2  0  0  0
 17 54  1  0  0  0
 18 55  1  0  0  0
 19 20  1  0  0  0
 19 56  1  0  0  0
 20 29  2  0  0  0
 20 21  1  0  0  0
 21 22  2  0  0  0
 21 57  1  0  0  0
 22 23  1  0  0  0
 22 58  1  0  0  0
 23 24  1  0  0  0
 23 28  2  0  0  0
 24 25  1  0  0  0
 24 26  1  0  0  0
 24 27  1  0  0  0
 25 59  1  0  0  0
 25 60  1  0  0  0
 25 61  1  0  0  0
 26 62  1  0  0  0
 26 63  1  0  0  0
 26 64  1  0  0  0
 27 65  1  0  0  0
 27 66  1  0  0  0
 27 67  1  0  0  0
 28 29  1  0  0  0
 28 68  1  0  0  0
 29 30  1  0  0  0
 30 31  1  0  0  0
 30 69  1  0  0  0
M  END
> <s_m_source_file>
/home/user-home/yujie/0_PBCNetv2/data/FEP/eg5/inp_ligprep.csv

> <i_m_source_file_index>
16

> <i_lp_mmshare_version>
51139

> <i_f3d_flags>
0

> <s_epik_input>
W09IXVtDSDJdW0NIMl1OKFtDSDJdW0NIM10pW0NIMl1bQ0BIXShbQ0gyXVtDSDJdMSlPW0NASF0oW0NASF0xMiljM2MoW2NIXVtjSF1jKFtjSF0zKUMoW0NIM10pKFtDSDNdKVtDSDNdKVtOSF1bQ0BASF0yYzRbY0hdW2NIXVtjSF1bY0hdW2NIXTQ=

> <s_epik_cmdline>
J2VwaWtfcHl0aG9uJywgJy1waHQnLCAnMi4wJywgJy1waCcsICc3LjQnLCAnLXRuJywgJzgnLCAnLW1hJywgJzIwMCcsICctaW1hZScsICc8aW5maWxlLm1hZT4nLCAnLW9tYWUnLCAnPG91dGZpbGUubWFlPic=

> <r_epik_Ionization_Penalty>
  0.7181

> <r_epik_Ionization_Penalty_Charging>
  0.0000

> <r_epik_Ionization_Penalty_Neutral>
  0.7181

> <r_epik_State_Penalty>
  0.7416

> <r_epik_Charging_Adjusted_Penalty>
0.741638

> <i_epik_Tot_Q>
0

> <i_epik_Tot_abs_Q>
0

> <s_lp_Force_Field>
OPLS3e

> <r_lp_Energy>
47.525

> <b_lp_Chiralities_Consistent>
1

> <s_lp_Variant>
lig_eg5_CHEMBL1084935-2

> <s_i_glide_gridfile>
eg5-001-gridgen

> <i_i_glide_lignum>
22

> <i_i_glide_rotatable_bonds>
8

> <r_i_docking_score>
-7.02481901298549

> <r_i_glide_ligand_efficiency>
-0.226607064935016

> <r_i_glide_ligand_efficiency_sa>
-0.71185904866722

> <r_i_glide_ligand_efficiency_ln>
-1.58431197227624

> <r_i_glide_gscore>
-7.76645701298549

> <r_i_glide_lipo>
-5.26920885829535

> <r_i_glide_hbond>
0

> <r_i_glide_metal>
-0

> <r_i_glide_rewards>
-0.661727421861669

> <r_i_glide_evdw>
-45.4916534423828

> <r_i_glide_ecoul>
-0.770697176456451

> <r_i_glide_erotb>
0.554666515759145

> <r_i_glide_esite>
0

> <r_i_glide_emodel>
-46.5650217449133

> <r_i_glide_energy>
-46.2623506188393

> <r_i_glide_einternal>
11.4861526489258

> <i_i_glide_confnum>
119

> <i_i_glide_posenum>
315

> <r_i_glide_eff_state_penalty>
0.741638

$$$$
