CDK2_22
                    3D
 Schrodinger Suite 2020-3.
 49 52  0  0  1  0            999 V2000
    5.1845   40.6552   44.7847 C   0  0  0  0  0  0
    3.9486   40.3518   46.0743 S   0  0  0  0  0  0
    4.6152   40.8486   47.6367 C   0  0  0  0  0  0
    3.9161   40.4949   48.7906 C   0  0  0  0  0  0
    4.3590   40.9288   50.0359 C   0  0  0  0  0  0
    5.4994   41.7222   50.1286 C   0  0  0  0  0  0
    6.2168   42.0811   48.9763 C   0  0  0  0  0  0
    7.3247   42.9516   49.0282 N   0  0  0  0  0  0
    7.5366   44.0636   49.8603 C   0  0  0  0  0  0
    6.4657   44.5192   50.5554 N   0  0  0  0  0  0
    6.6614   45.4880   51.4830 C   0  0  0  0  0  0
    5.6410   45.8471   52.3378 O   0  0  0  0  0  0
    4.6136   44.8817   52.6133 C   0  0  0  0  0  0
    3.5111   44.8014   51.5226 C   0  0  0  0  0  0
    2.3783   43.8058   51.8772 C   0  0  0  0  0  0
    1.5431   44.2937   53.0813 C   0  0  0  0  0  0
    1.0156   45.7315   52.8750 C   0  0  0  0  0  0
    2.1120   46.7196   52.4119 C   0  0  0  0  0  0
    2.8886   46.1726   51.2012 C   0  0  0  0  0  0
    7.9289   46.0484   51.6750 C   0  0  0  0  0  0
    8.4024   47.0206   52.5182 N   0  0  0  0  0  0
    9.6897   47.0379   52.2729 C   0  0  0  0  0  0
   10.0942   46.1148   51.3324 N   0  0  0  0  0  0
    8.9600   45.4776   50.8931 C   0  0  0  0  0  0
    8.8207   44.5059   49.9745 N   0  0  0  0  0  0
    5.7857   41.6099   47.7331 C   0  0  0  0  0  0
   11.0501   45.9750   51.0322 H   0  0  0  0  0  0
    4.7954   40.3324   43.8195 H   0  0  0  0  0  0
    5.4237   41.7170   44.7156 H   0  0  0  0  0  0
    6.0889   40.0845   44.9963 H   0  0  0  0  0  0
    3.0302   39.8837   48.7210 H   0  0  0  0  0  0
    3.8107   40.6654   50.9308 H   0  0  0  0  0  0
    5.8073   42.0817   51.0966 H   0  0  0  0  0  0
    8.1203   42.6691   48.4747 H   0  0  0  0  0  0
    4.1856   45.1526   53.5774 H   0  0  0  0  0  0
    5.0542   43.8971   52.7696 H   0  0  0  0  0  0
    3.9480   44.4329   50.5951 H   0  0  0  0  0  0
    2.8008   42.8266   52.1105 H   0  0  0  0  0  0
    1.7252   43.6640   51.0159 H   0  0  0  0  0  0
    2.1438   44.2527   53.9915 H   0  0  0  0  0  0
    0.7087   43.6141   53.2507 H   0  0  0  0  0  0
    0.5619   46.0806   53.8027 H   0  0  0  0  0  0
    0.2145   45.7155   52.1368 H   0  0  0  0  0  0
    2.7939   46.9304   53.2374 H   0  0  0  0  0  0
    1.6897   47.6818   52.1385 H   0  0  0  0  0  0
    2.2291   46.0942   50.3366 H   0  0  0  0  0  0
    3.6747   46.8805   50.9379 H   0  0  0  0  0  0
   10.4203   47.6819   52.7467 H   0  0  0  0  0  0
    6.3357   41.8877   46.8479 H   0  0  0  0  0  0
  1  2  1  0  0  0
  1 28  1  0  0  0
  1 29  1  0  0  0
  1 30  1  0  0  0
  2  3  1  0  0  0
  3 26  1  0  0  0
  3  4  2  0  0  0
  4  5  1  0  0  0
  4 31  1  0  0  0
  5  6  2  0  0  0
  5 32  1  0  0  0
  6  7  1  0  0  0
  6 33  1  0  0  0
  7  8  1  0  0  0
  7 26  2  0  0  0
  8  9  1  0  0  0
  8 34  1  0  0  0
  9 25  1  0  0  0
  9 10  2  0  0  0
 10 11  1  0  0  0
 11 12  1  0  0  0
 11 20  2  0  0  0
 12 13  1  0  0  0
 13 14  1  0  0  0
 13 35  1  0  0  0
 13 36  1  0  0  0
 14 19  1  0  0  0
 14 15  1  0  0  0
 14 37  1  0  0  0
 15 16  1  0  0  0
 15 38  1  0  0  0
 15 39  1  0  0  0
 16 17  1  0  0  0
 16 40  1  0  0  0
 16 41  1  0  0  0
 17 18  1  0  0  0
 17 42  1  0  0  0
 17 43  1  0  0  0
 18 19  1  0  0  0
 18 44  1  0  0  0
 18 45  1  0  0  0
 19 46  1  0  0  0
 19 47  1  0  0  0
 20 24  1  0  0  0
 20 21  1  0  0  0
 21 22  2  0  0  0
 22 23  1  0  0  0
 22 48  1  0  0  0
 23 27  1  0  0  0
 23 24  1  0  0  0
 24 25  2  0  0  0
 26 49  1  0  0  0
M  END
> <s_m_source_file>
/home/user-home/yujie/0_PBCNetv2/data/FEP/CDK2/inp_ligprep.csv

> <i_m_source_file_index>
6

> <i_lp_mmshare_version>
51139

> <i_f3d_flags>
0

> <s_epik_input>
W0NIM11TYzFbY0hdW2NIXVtjSF1jKFtjSF0xKVtOSF1jKG5jKGMyMylbbkhdW2NIXW4zKW5jMk9bQ0gyXVtDSF00W0NIMl1bQ0gyXVtDSDJdW0NIMl1bQ0gyXTQ=

> <s_epik_cmdline>
J2VwaWtfcHl0aG9uJywgJy1waHQnLCAnMi4wJywgJy1waCcsICc3LjQnLCAnLXRuJywgJzgnLCAnLW1hJywgJzIwMCcsICctaW1hZScsICc8aW5maWxlLm1hZT4nLCAnLW9tYWUnLCAnPG91dGZpbGUubWFlPic=

> <r_lp_tautomer_probability>
0.990859

> <r_epik_Ionization_Penalty>
  0.0272

> <r_epik_Ionization_Penalty_Charging>
  0.0000

> <r_epik_Ionization_Penalty_Neutral>
  0.0272

> <r_epik_State_Penalty>
  0.0118

> <r_epik_Charging_Adjusted_Penalty>
0.0118161

> <i_epik_Tot_Q>
0

> <i_epik_Tot_abs_Q>
0

> <s_lp_Force_Field>
OPLS3e

> <r_lp_Energy>
26.1998

> <b_lp_Chiralities_Consistent>
1

> <s_lp_Variant>
CDK2_22-1

> <s_i_glide_gridfile>
CDK2-001-gridgen

> <i_i_glide_lignum>
11

> <i_i_glide_rotatable_bonds>
6

> <r_i_docking_score>
-7.03999871902185

> <r_i_glide_ligand_efficiency>
-0.270769181500841

> <r_i_glide_ligand_efficiency_sa>
-0.802152634770958

> <r_i_glide_ligand_efficiency_ln>
-1.65332059904235

> <r_i_glide_gscore>
-7.05181481902185

> <r_i_glide_lipo>
-2.72614867005716

> <r_i_glide_hbond>
-0.115398895854043

> <r_i_glide_metal>
-0

> <r_i_glide_rewards>
-2.07561170254684

> <r_i_glide_evdw>
-45.0282783508301

> <r_i_glide_ecoul>
-3.92950487136841

> <r_i_glide_erotb>
0.706184097682958

> <r_i_glide_esite>
0

> <r_i_glide_emodel>
-66.8348699578254

> <r_i_glide_energy>
-48.9577832221985

> <r_i_glide_einternal>
2.43687534332275

> <i_i_glide_confnum>
182

> <i_i_glide_posenum>
146

> <r_i_glide_eff_state_penalty>
0.0118161

$$$$
