CDK2_1h1r
                    3D
 Schrodinger Suite 2020-3.
 45 48  0  0  1  0            999 V2000
    3.9655   40.0809   45.4750 Cl  0  0  0  0  0  0
    4.4860   40.5838   47.0416 C   0  0  0  0  0  0
    3.6984   40.3114   48.1599 C   0  0  0  0  0  0
    4.1075   40.7437   49.4209 C   0  0  0  0  0  0
    5.3020   41.4514   49.5609 C   0  0  0  0  0  0
    6.0898   41.7404   48.4383 C   0  0  0  0  0  0
    7.2784   42.4808   48.5249 N   0  0  0  0  0  0
    7.6368   43.5464   49.3390 C   0  0  0  0  0  0
    6.6496   44.1805   50.0195 N   0  0  0  0  0  0
    7.0008   45.1860   50.8610 C   0  0  0  0  0  0
    6.0463   45.8301   51.6250 O   0  0  0  0  0  0
    4.6807   45.4119   51.5164 C   0  0  0  0  0  0
    3.9161   45.7444   52.8087 C   0  0  0  0  0  0
    2.4387   45.3042   52.6942 C   0  0  0  0  0  0
    1.6447   45.6804   53.9571 C   0  0  0  0  0  0
    2.2859   45.0958   55.2352 C   0  0  0  0  0  0
    3.7903   45.4246   55.3389 C   0  0  0  0  0  0
    4.5440   45.0546   54.0448 C   0  0  0  0  0  0
    8.3435   45.5518   51.0049 C   0  0  0  0  0  0
    8.9762   46.4947   51.7694 N   0  0  0  0  0  0
   10.2419   46.3065   51.4949 C   0  0  0  0  0  0
   10.4897   45.2835   50.6044 N   0  0  0  0  0  0
    9.2644   44.7965   50.2380 C   0  0  0  0  0  0
    8.9682   43.8129   49.3827 N   0  0  0  0  0  0
    5.6863   41.2812   47.1834 C   0  0  0  0  0  0
   11.4156   45.0159   50.2761 H   0  0  0  0  0  0
    2.7878   39.7434   48.0446 H   0  0  0  0  0  0
    3.5110   40.5221   50.2954 H   0  0  0  0  0  0
    5.6114   41.7793   50.5414 H   0  0  0  0  0  0
    8.0612   42.0451   48.0426 H   0  0  0  0  0  0
    4.5844   44.3383   51.3435 H   0  0  0  0  0  0
    4.2299   45.9159   50.6609 H   0  0  0  0  0  0
    3.9414   46.8236   52.9679 H   0  0  0  0  0  0
    2.3808   44.2286   52.5156 H   0  0  0  0  0  0
    1.9785   45.7583   51.8147 H   0  0  0  0  0  0
    0.6098   45.3478   53.8685 H   0  0  0  0  0  0
    1.6102   46.7652   54.0354 H   0  0  0  0  0  0
    2.1536   44.0143   55.2393 H   0  0  0  0  0  0
    1.7662   45.4676   56.1179 H   0  0  0  0  0  0
    4.2246   44.8942   56.1866 H   0  0  0  0  0  0
    3.9188   46.4867   55.5499 H   0  0  0  0  0  0
    5.5977   45.3255   54.1359 H   0  0  0  0  0  0
    4.5492   43.9715   53.9071 H   0  0  0  0  0  0
   11.0646   46.8789   51.8993 H   0  0  0  0  0  0
    6.2878   41.4888   46.3109 H   0  0  0  0  0  0
  1  2  1  0  0  0
  2 25  1  0  0  0
  2  3  2  0  0  0
  3  4  1  0  0  0
  3 27  1  0  0  0
  4  5  2  0  0  0
  4 28  1  0  0  0
  5  6  1  0  0  0
  5 29  1  0  0  0
  6  7  1  0  0  0
  6 25  2  0  0  0
  7  8  1  0  0  0
  7 30  1  0  0  0
  8 24  1  0  0  0
  8  9  2  0  0  0
  9 10  1  0  0  0
 10 11  1  0  0  0
 10 19  2  0  0  0
 11 12  1  0  0  0
 12 13  1  0  0  0
 12 31  1  0  0  0
 12 32  1  0  0  0
 13 18  1  0  0  0
 13 14  1  0  0  0
 13 33  1  0  0  0
 14 15  1  0  0  0
 14 34  1  0  0  0
 14 35  1  0  0  0
 15 16  1  0  0  0
 15 36  1  0  0  0
 15 37  1  0  0  0
 16 17  1  0  0  0
 16 38  1  0  0  0
 16 39  1  0  0  0
 17 18  1  0  0  0
 17 40  1  0  0  0
 17 41  1  0  0  0
 18 42  1  0  0  0
 18 43  1  0  0  0
 19 23  1  0  0  0
 19 20  1  0  0  0
 20 21  2  0  0  0
 21 22  1  0  0  0
 21 44  1  0  0  0
 22 26  1  0  0  0
 22 23  1  0  0  0
 23 24  2  0  0  0
 25 45  1  0  0  0
M  END
> <s_m_source_file>
/home/user-home/yujie/0_PBCNetv2/data/FEP/CDK2/inp_ligprep.csv

> <i_m_source_file_index>
2

> <i_lp_mmshare_version>
51139

> <i_f3d_flags>
0

> <s_epik_input>
Q2xjMVtjSF1bY0hdW2NIXWMoW2NIXTEpW05IXWMobmMoYzIzKVtuSF1bY0hdbjMpbmMyT1tDSDJdW0NIXTRbQ0gyXVtDSDJdW0NIMl1bQ0gyXVtDSDJdNA==

> <s_epik_cmdline>
J2VwaWtfcHl0aG9uJywgJy1waHQnLCAnMi4wJywgJy1waCcsICc3LjQnLCAnLXRuJywgJzgnLCAnLW1hJywgJzIwMCcsICctaW1hZScsICc8aW5maWxlLm1hZT4nLCAnLW9tYWUnLCAnPG91dGZpbGUubWFlPic=

> <r_lp_tautomer_probability>
0.990859

> <r_epik_Ionization_Penalty>
  0.0272

> <r_epik_Ionization_Penalty_Charging>
  0.0000

> <r_epik_Ionization_Penalty_Neutral>
  0.0272

> <r_epik_State_Penalty>
  0.0122

> <r_epik_Charging_Adjusted_Penalty>
0.0121946

> <i_epik_Tot_Q>
0

> <i_epik_Tot_abs_Q>
0

> <s_lp_Force_Field>
OPLS3e

> <r_lp_Energy>
26.0899

> <b_lp_Chiralities_Consistent>
1

> <s_lp_Variant>
CDK2_1h1r-1

> <s_i_glide_gridfile>
CDK2-001-gridgen

> <i_i_glide_lignum>
3

> <i_i_glide_rotatable_bonds>
5

> <r_i_docking_score>
-9.45623213956146

> <r_i_glide_ligand_efficiency>
-0.378249285582459

> <r_i_glide_ligand_efficiency_sa>
-1.10600761932275

> <r_i_glide_ligand_efficiency_ln>
-2.24141039748589

> <r_i_glide_gscore>
-9.46842673956146

> <r_i_glide_lipo>
-2.22413222242413

> <r_i_glide_hbond>
-0.776925299956278

> <r_i_glide_metal>
-0

> <r_i_glide_rewards>
-3.37295914933844

> <r_i_glide_evdw>
-44.6700477600098

> <r_i_glide_ecoul>
-9.05288124084473

> <r_i_glide_erotb>
0.523405157026995

> <r_i_glide_esite>
-0.026380650742416

> <r_i_glide_emodel>
-83.1090572323565

> <r_i_glide_energy>
-53.7229290008545

> <r_i_glide_einternal>
2.08637714385986

> <i_i_glide_confnum>
14

> <i_i_glide_posenum>
122

> <r_i_glide_eff_state_penalty>
0.0121946

$$$$
