CDK2_20
                    3D
 Schrodinger Suite 2020-3.
 49 52  0  0  1  0            999 V2000
    5.0805   39.6813   44.7838 O   0  0  0  0  0  0
    4.0264   40.0867   45.6330 C   0  0  0  0  0  0
    4.4901   40.5642   47.0063 C   0  0  0  0  0  0
    3.6937   40.3117   48.1288 C   0  0  0  0  0  0
    4.0988   40.7479   49.3921 C   0  0  0  0  0  0
    5.2970   41.4472   49.5375 C   0  0  0  0  0  0
    6.0898   41.7350   48.4189 C   0  0  0  0  0  0
    7.2759   42.4807   48.5079 N   0  0  0  0  0  0
    7.6344   43.5297   49.3402 C   0  0  0  0  0  0
    6.6490   44.1578   50.0276 N   0  0  0  0  0  0
    7.0027   45.1634   50.8663 C   0  0  0  0  0  0
    6.0487   45.8002   51.6353 O   0  0  0  0  0  0
    4.6858   45.3734   51.5321 C   0  0  0  0  0  0
    3.9157   45.7217   52.8162 C   0  0  0  0  0  0
    2.4388   45.2788   52.6975 C   0  0  0  0  0  0
    1.6382   45.6807   53.9496 C   0  0  0  0  0  0
    2.2741   45.1229   55.2408 C   0  0  0  0  0  0
    3.7808   45.4449   55.3468 C   0  0  0  0  0  0
    4.5356   45.0448   54.0633 C   0  0  0  0  0  0
    8.3454   45.5377   50.9981 C   0  0  0  0  0  0
    8.9802   46.4855   51.7567 N   0  0  0  0  0  0
   10.2451   46.3027   51.4710 C   0  0  0  0  0  0
   10.4899   45.2812   50.5779 N   0  0  0  0  0  0
    9.2630   44.7860   50.2234 C   0  0  0  0  0  0
    8.9636   43.8005   49.3737 N   0  0  0  0  0  0
    5.6848   41.2802   47.1608 C   0  0  0  0  0  0
   11.4132   45.0184   50.2393 H   0  0  0  0  0  0
    5.6047   39.0284   45.2719 H   0  0  0  0  0  0
    3.4659   40.8836   45.1425 H   0  0  0  0  0  0
    3.3588   39.2292   45.7337 H   0  0  0  0  0  0
    2.7821   39.7448   48.0270 H   0  0  0  0  0  0
    3.4988   40.5281   50.2626 H   0  0  0  0  0  0
    5.5991   41.7736   50.5207 H   0  0  0  0  0  0
    8.0604   42.0418   48.0301 H   0  0  0  0  0  0
    4.2349   45.8583   50.6649 H   0  0  0  0  0  0
    4.5954   44.2952   51.3811 H   0  0  0  0  0  0
    3.9408   46.8042   52.9602 H   0  0  0  0  0  0
    1.9872   45.7171   51.8071 H   0  0  0  0  0  0
    2.3786   44.1998   52.5402 H   0  0  0  0  0  0
    1.5956   46.7675   54.0019 H   0  0  0  0  0  0
    0.6058   45.3387   53.8619 H   0  0  0  0  0  0
    1.7520   45.5117   56.1177 H   0  0  0  0  0  0
    2.1405   44.0396   55.2655 H   0  0  0  0  0  0
    3.9171   46.5099   55.5390 H   0  0  0  0  0  0
    4.2076   44.9251   56.2040 H   0  0  0  0  0  0
    4.5308   43.9591   53.9441 H   0  0  0  0  0  0
    5.5920   45.3084   54.1525 H   0  0  0  0  0  0
   11.0663   46.8811   51.8676 H   0  0  0  0  0  0
    6.2943   41.4951   46.2976 H   0  0  0  0  0  0
  1  2  1  0  0  0
  1 28  1  0  0  0
  2  3  1  0  0  0
  2 29  1  0  0  0
  2 30  1  0  0  0
  3 26  1  0  0  0
  3  4  2  0  0  0
  4  5  1  0  0  0
  4 31  1  0  0  0
  5  6  2  0  0  0
  5 32  1  0  0  0
  6  7  1  0  0  0
  6 33  1  0  0  0
  7  8  1  0  0  0
  7 26  2  0  0  0
  8  9  1  0  0  0
  8 34  1  0  0  0
  9 25  1  0  0  0
  9 10  2  0  0  0
 10 11  1  0  0  0
 11 12  1  0  0  0
 11 20  2  0  0  0
 12 13  1  0  0  0
 13 14  1  0  0  0
 13 35  1  0  0  0
 13 36  1  0  0  0
 14 19  1  0  0  0
 14 15  1  0  0  0
 14 37  1  0  0  0
 15 16  1  0  0  0
 15 38  1  0  0  0
 15 39  1  0  0  0
 16 17  1  0  0  0
 16 40  1  0  0  0
 16 41  1  0  0  0
 17 18  1  0  0  0
 17 42  1  0  0  0
 17 43  1  0  0  0
 18 19  1  0  0  0
 18 44  1  0  0  0
 18 45  1  0  0  0
 19 46  1  0  0  0
 19 47  1  0  0  0
 20 24  1  0  0  0
 20 21  1  0  0  0
 21 22  2  0  0  0
 22 23  1  0  0  0
 22 48  1  0  0  0
 23 27  1  0  0  0
 23 24  1  0  0  0
 24 25  2  0  0  0
 26 49  1  0  0  0
M  END
> <s_m_source_file>
/home/user-home/yujie/0_PBCNetv2/data/FEP/CDK2/inp_ligprep.csv

> <i_m_source_file_index>
7

> <i_lp_mmshare_version>
51139

> <i_f3d_flags>
0

> <s_epik_input>
W09IXVtDSDJdYzFbY0hdW2NIXVtjSF1jKFtjSF0xKVtOSF1jKG5jKGMyMylbbkhdW2NIXW4zKW5jMk9bQ0gyXVtDSF00W0NIMl1bQ0gyXVtDSDJdW0NIMl1bQ0gyXTQ=

> <s_epik_cmdline>
J2VwaWtfcHl0aG9uJywgJy1waHQnLCAnMi4wJywgJy1waCcsICc3LjQnLCAnLXRuJywgJzgnLCAnLW1hJywgJzIwMCcsICctaW1hZScsICc8aW5maWxlLm1hZT4nLCAnLW9tYWUnLCAnPG91dGZpbGUubWFlPic=

> <r_lp_tautomer_probability>
0.990859

> <r_epik_Ionization_Penalty>
  0.0272

> <r_epik_Ionization_Penalty_Charging>
  0.0000

> <r_epik_Ionization_Penalty_Neutral>
  0.0272

> <r_epik_State_Penalty>
  0.0125

> <r_epik_Charging_Adjusted_Penalty>
0.0124756

> <i_epik_Tot_Q>
0

> <i_epik_Tot_abs_Q>
0

> <s_lp_Force_Field>
OPLS3e

> <r_lp_Energy>
27.3952

> <b_lp_Chiralities_Consistent>
1

> <s_lp_Variant>
CDK2_20-1

> <s_i_glide_gridfile>
CDK2-001-gridgen

> <i_i_glide_lignum>
13

> <i_i_glide_rotatable_bonds>
7

> <r_i_docking_score>
-10.2911209017798

> <r_i_glide_ligand_efficiency>
-0.395812342376147

> <r_i_glide_ligand_efficiency_sa>
-1.17259250684297

> <r_i_glide_ligand_efficiency_ln>
-2.41683597586107

> <r_i_glide_gscore>
-10.3035965017798

> <r_i_glide_lipo>
-2.18985607545219

> <r_i_glide_hbond>
-1.17196452706994

> <r_i_glide_metal>
-0

> <r_i_glide_rewards>
-3.39771128957293

> <r_i_glide_evdw>
-43.5686416625977

> <r_i_glide_ecoul>
-13.1924095153809

> <r_i_glide_erotb>
0.642136670482126

> <r_i_glide_esite>
-0.0289077697298616

> <r_i_glide_emodel>
-90.7690272480303

> <r_i_glide_energy>
-56.7610511779785

> <r_i_glide_einternal>
2.24722123146057

> <i_i_glide_confnum>
45

> <i_i_glide_posenum>
304

> <r_i_glide_eff_state_penalty>
0.0124756

$$$$
