lig27
                    3D
 Schrodinger Suite 2020-3.
 57 59  0  0  1  0            999 V2000
  -22.1431  -15.4988    8.1521 C   0  0  0  0  0  0
  -22.8279  -15.5961    6.7830 C   0  0  0  0  0  0
  -22.8970  -14.3052    6.0701 N   0  0  0  0  0  0
  -23.6629  -13.2002    6.6818 C   0  0  0  0  0  0
  -22.3051  -14.1440    4.7608 C   0  0  0  0  0  0
  -22.5951  -12.9958    4.0932 N   0  0  0  0  0  0
  -22.0342  -12.7828    2.8722 C   0  0  0  0  0  0
  -22.2907  -11.5523    2.2266 N   0  0  0  0  0  0
  -22.9818  -10.4310    2.8672 C   0  0  2  0  0  0
  -23.2886   -9.3705    1.7908 C   0  0  0  0  0  0
  -23.9538   -8.1139    2.3942 C   0  0  0  0  0  0
  -23.0476   -7.5603    3.5241 N   0  3  1  0  0  0
  -23.6723   -6.2964    4.1601 C   0  0  0  0  0  0
  -22.8051   -8.6160    4.6231 C   0  0  0  0  0  0
  -22.1070   -9.8299    3.9859 C   0  0  0  0  0  0
  -21.1924  -13.7544    2.2519 C   0  0  0  0  0  0
  -20.5848  -13.6092    0.9779 C   0  0  0  0  0  0
  -19.7540  -14.6097    0.4505 C   0  0  0  0  0  0
  -19.1274  -14.4899   -0.7741 O   0  0  0  0  0  0
  -19.4002  -13.3626   -1.6002 C   0  0  0  0  0  0
  -19.5259  -15.7905    1.1769 C   0  0  0  0  0  0
  -18.7249  -16.7489    0.5809 O   0  0  0  0  0  0
  -18.4886  -17.9912    1.2414 C   0  0  0  0  0  0
  -20.1044  -15.9580    2.4419 C   0  0  0  0  0  0
  -20.9260  -14.9496    2.9778 C   0  0  0  0  0  0
  -21.4947  -15.0784    4.2216 N   0  3  0  0  0  0
  -22.0581  -16.4825    8.6130 H   0  0  0  0  0  0
  -21.1392  -15.0829    8.0724 H   0  0  0  0  0  0
  -22.7258  -14.8718    8.8259 H   0  0  0  0  0  0
  -23.8580  -15.9351    6.9020 H   0  0  0  0  0  0
  -22.3278  -16.3435    6.1699 H   0  0  0  0  0  0
  -22.9794  -12.3866    6.9265 H   0  0  0  0  0  0
  -24.4246  -12.8423    5.9882 H   0  0  0  0  0  0
  -24.1570  -13.5337    7.5965 H   0  0  0  0  0  0
  -21.7250  -11.3265    1.4142 H   0  0  0  0  0  0
  -23.9131  -10.8077    3.2951 H   0  0  0  0  0  0
  -22.3719   -9.0795    1.2692 H   0  0  0  0  0  0
  -23.9466   -9.7935    1.0287 H   0  0  0  0  0  0
  -24.9303   -8.3325    2.8314 H   0  0  0  0  0  0
  -24.0594   -7.3222    1.6507 H   0  0  0  0  0  0
  -24.6229   -6.5689    4.6213 H   0  0  0  0  0  0
  -22.9678   -5.9274    4.9082 H   0  0  0  0  0  0
  -23.8050   -5.5596    3.3669 H   0  0  0  0  0  0
  -23.7833   -8.8802    5.0242 H   0  0  0  0  0  0
  -22.2011   -8.1460    5.3990 H   0  0  0  0  0  0
  -21.9204  -10.5698    4.7640 H   0  0  0  0  0  0
  -21.1269   -9.5370    3.6053 H   0  0  0  0  0  0
  -20.7643  -12.7025    0.4277 H   0  0  0  0  0  0
  -18.8464  -13.4694   -2.5329 H   0  0  0  0  0  0
  -19.0896  -12.4293   -1.1281 H   0  0  0  0  0  0
  -20.4591  -13.2996   -1.8538 H   0  0  0  0  0  0
  -17.8616  -18.6241    0.6115 H   0  0  0  0  0  0
  -17.9651  -17.8518    2.1878 H   0  0  0  0  0  0
  -19.4179  -18.5339    1.4207 H   0  0  0  0  0  0
  -19.9281  -16.8501    3.0234 H   0  0  0  0  0  0
  -22.1426   -7.3233    3.1323 H   0  0  0  0  0  0
  -21.2810  -15.9251    4.7503 H   0  0  0  0  0  0
  1  2  1  0  0  0
  1 27  1  0  0  0
  1 28  1  0  0  0
  1 29  1  0  0  0
  2  3  1  0  0  0
  2 30  1  0  0  0
  2 31  1  0  0  0
  3  4  1  0  0  0
  3  5  1  0  0  0
  4 32  1  0  0  0
  4 33  1  0  0  0
  4 34  1  0  0  0
  5 26  1  0  0  0
  5  6  2  0  0  0
  6  7  1  0  0  0
  7  8  1  0  0  0
  7 16  2  0  0  0
  8  9  1  0  0  0
  8 35  1  0  0  0
  9 15  1  0  0  0
  9 10  1  0  0  0
  9 36  1  0  0  0
 10 11  1  0  0  0
 10 37  1  0  0  0
 10 38  1  0  0  0
 11 12  1  0  0  0
 11 39  1  0  0  0
 11 40  1  0  0  0
 12 13  1  0  0  0
 12 14  1  0  0  0
 12 56  1  0  0  0
 13 41  1  0  0  0
 13 42  1  0  0  0
 13 43  1  0  0  0
 14 15  1  0  0  0
 14 44  1  0  0  0
 14 45  1  0  0  0
 15 46  1  0  0  0
 15 47  1  0  0  0
 16 25  1  0  0  0
 16 17  1  0  0  0
 17 18  2  0  0  0
 17 48  1  0  0  0
 18 19  1  0  0  0
 18 21  1  0  0  0
 19 20  1  0  0  0
 20 49  1  0  0  0
 20 50  1  0  0  0
 20 51  1  0  0  0
 21 22  1  0  0  0
 21 24  2  0  0  0
 22 23  1  0  0  0
 23 52  1  0  0  0
 23 53  1  0  0  0
 23 54  1  0  0  0
 24 25  1  0  0  0
 24 55  1  0  0  0
 25 26  2  0  0  0
 26 57  1  0  0  0
M  CHG  2  12   1  26   1
M  END
> <s_m_source_file>
/home/user-home/yujie/0_PBCNetv2/data/0_0_high_sim/0_noncov/Sries47256/ligprep_input.csv

> <i_m_source_file_index>
28

> <i_lp_mmshare_version>
51139

> <i_f3d_flags>
0

> <s_epik_input>
W0NIM11PYyhbY0hdMSljKE9bQ0gzXSlbY0hdYyhjMTIpbmMoTihbQ0gzXSlbQ0gyXVtDSDNdKW5jMltOSF1bQ0hdM1tDSDJdW0NIMl1OKFtDSDNdKVtDSDJdW0NIMl0z

> <s_epik_cmdline>
J2VwaWtfcHl0aG9uJywgJy1waHQnLCAnMi4wJywgJy1waCcsICc3LjQnLCAnLXRuJywgJzgnLCAnLW1hJywgJzIwMCcsICctaW1hZScsICc8aW5maWxlLm1hZT4nLCAnLW9tYWUnLCAnPG91dGZpbGUubWFlPic=

> <r_lp_tautomer_probability>
0.993508

> <r_epik_Ionization_Penalty>
  0.0094

> <r_epik_Ionization_Penalty_Charging>
  0.0094

> <r_epik_Ionization_Penalty_Neutral>
  0.0000

> <r_epik_State_Penalty>
  0.0058

> <r_epik_Charging_Adjusted_Penalty>
0.0152026

> <i_epik_Tot_Q>
2

> <i_epik_Tot_abs_Q>
2

> <s_lp_Force_Field>
OPLS3e

> <r_lp_Energy>
54.1667

> <b_lp_Chiralities_Consistent>
1

> <s_lp_Variant>
lig27-1

> <s_i_glide_gridfile>
Sries47258-001-gridgen

> <i_i_glide_lignum>
39

> <i_i_glide_rotatable_bonds>
6

> <r_i_docking_score>
-6.32504516803315

> <r_i_glide_ligand_efficiency>
-0.243270968001275

> <r_i_glide_ligand_efficiency_sa>
-0.720689285478741

> <r_i_glide_ligand_efficiency_ln>
-1.4854161035466

> <r_i_glide_gscore>
-6.33086728803315

> <r_i_glide_lipo>
-1.46738283258173

> <r_i_glide_hbond>
-0.36

> <r_i_glide_metal>
-0

> <r_i_glide_rewards>
-1.1893105766571

> <r_i_glide_evdw>
-38.121467590332

> <r_i_glide_ecoul>
-11.1070165634155

> <r_i_glide_erotb>
0.440601989189576

> <r_i_glide_esite>
-0.182650003954963

> <r_i_glide_emodel>
-83.0404550503593

> <r_i_glide_energy>
-49.2284841537476

> <r_i_glide_einternal>
3.34486150741577

> <i_i_glide_confnum>
4

> <i_i_glide_posenum>
382

> <r_i_glide_eff_state_penalty>
0.00582212

$$$$
