lig4
                    3D
 Schrodinger Suite 2020-3.
 66 68  0  0  1  0            999 V2000
  -18.5018  -17.8942    1.1530 C   0  0  0  0  0  0
  -18.8082  -16.6505    0.5307 O   0  0  0  0  0  0
  -19.6023  -15.7256    1.1874 C   0  0  0  0  0  0
  -20.1123  -15.9304    2.4774 C   0  0  0  0  0  0
  -20.9081  -14.9403    3.0867 C   0  0  0  0  0  0
  -21.3741  -15.0809    4.3728 N   0  3  0  0  0  0
  -22.1489  -14.1667    4.9897 C   0  0  0  0  0  0
  -22.5972  -14.3616    6.3615 N   0  0  0  0  0  0
  -23.5228  -13.3797    6.9645 C   0  0  0  0  0  0
  -21.8188  -15.2539    7.2625 C   0  0  0  0  0  0
  -22.6141  -16.1307    8.2670 C   0  0  0  0  0  0
  -23.7044  -17.0081    7.5987 N   0  3  0  0  0  0
  -23.1272  -17.9832    6.5596 C   0  0  0  0  0  0
  -24.5720  -17.7744    8.6282 C   0  0  0  0  0  0
  -22.5374  -13.0296    4.3465 N   0  0  0  0  0  0
  -22.0718  -12.8071    3.0826 C   0  0  0  0  0  0
  -22.3987  -11.5973    2.4386 N   0  0  0  0  0  0
  -23.0610  -10.4767    3.0950 C   0  0  2  0  0  0
  -23.7224   -9.6064    2.0070 C   0  0  0  0  0  0
  -24.3362   -8.3218    2.5980 C   0  0  0  0  0  0
  -23.2478   -7.5566    3.3903 N   0  3  1  0  0  0
  -23.8331   -6.2557    3.9810 C   0  0  0  0  0  0
  -22.6520   -8.4278    4.5183 C   0  0  0  0  0  0
  -22.0100   -9.6627    3.8675 C   0  0  0  0  0  0
  -21.2492  -13.7484    2.3950 C   0  0  0  0  0  0
  -20.7265  -13.5755    1.0860 C   0  0  0  0  0  0
  -19.8904  -14.5362    0.5006 C   0  0  0  0  0  0
  -19.3148  -14.3661   -0.7462 O   0  0  0  0  0  0
  -19.5572  -13.1743   -1.4908 C   0  0  0  0  0  0
  -17.8975  -18.4962    0.4733 H   0  0  0  0  0  0
  -17.9278  -17.7617    2.0713 H   0  0  0  0  0  0
  -19.4044  -18.4650    1.3788 H   0  0  0  0  0  0
  -19.9028  -16.8352    3.0247 H   0  0  0  0  0  0
  -23.0084  -12.4217    7.0646 H   0  0  0  0  0  0
  -24.3953  -13.2453    6.3205 H   0  0  0  0  0  0
  -23.8676  -13.7002    7.9517 H   0  0  0  0  0  0
  -21.1527  -15.8784    6.6769 H   0  0  0  0  0  0
  -21.1485  -14.6039    7.8212 H   0  0  0  0  0  0
  -21.9571  -16.8202    8.8035 H   0  0  0  0  0  0
  -23.1270  -15.5171    9.0044 H   0  0  0  0  0  0
  -22.3270  -18.5408    7.0286 H   0  0  0  0  0  0
  -23.8983  -18.6753    6.2247 H   0  0  0  0  0  0
  -22.7582  -17.3773    5.7319 H   0  0  0  0  0  0
  -23.9235  -18.1430    9.4192 H   0  0  0  0  0  0
  -25.3110  -17.0784    9.0230 H   0  0  0  0  0  0
  -25.0919  -18.5944    8.1336 H   0  0  0  0  0  0
  -21.8809  -11.3822    1.5942 H   0  0  0  0  0  0
  -23.8161  -10.8607    3.7861 H   0  0  0  0  0  0
  -22.9960   -9.3407    1.2353 H   0  0  0  0  0  0
  -24.5023  -10.1761    1.4989 H   0  0  0  0  0  0
  -25.1503   -8.5427    3.2931 H   0  0  0  0  0  0
  -24.7032   -7.6526    1.8172 H   0  0  0  0  0  0
  -24.6721   -6.5182    4.6277 H   0  0  0  0  0  0
  -23.0392   -5.7592    4.5436 H   0  0  0  0  0  0
  -24.1582   -5.6326    3.1455 H   0  0  0  0  0  0
  -23.4634   -8.6857    5.1967 H   0  0  0  0  0  0
  -21.9271   -7.8242    5.0614 H   0  0  0  0  0  0
  -21.5406  -10.2877    4.6239 H   0  0  0  0  0  0
  -21.1993   -9.3429    3.2138 H   0  0  0  0  0  0
  -20.9719  -12.6784    0.5485 H   0  0  0  0  0  0
  -19.0384  -13.2435   -2.4465 H   0  0  0  0  0  0
  -19.1730  -12.2923   -0.9757 H   0  0  0  0  0  0
  -20.6182  -13.0367   -1.7041 H   0  0  0  0  0  0
  -22.4885   -7.3249    2.7585 H   0  0  0  0  0  0
  -21.1269  -15.9421    4.8700 H   0  0  0  0  0  0
  -24.3222  -16.3608    7.1248 H   0  0  0  0  0  0
  1  2  1  0  0  0
  1 30  1  0  0  0
  1 31  1  0  0  0
  1 32  1  0  0  0
  2  3  1  0  0  0
  3 27  1  0  0  0
  3  4  2  0  0  0
  4  5  1  0  0  0
  4 33  1  0  0  0
  5 25  2  0  0  0
  5  6  1  0  0  0
  6  7  2  0  0  0
  6 65  1  0  0  0
  7  8  1  0  0  0
  7 15  1  0  0  0
  8  9  1  0  0  0
  8 10  1  0  0  0
  9 34  1  0  0  0
  9 35  1  0  0  0
  9 36  1  0  0  0
 10 11  1  0  0  0
 10 37  1  0  0  0
 10 38  1  0  0  0
 11 12  1  0  0  0
 11 39  1  0  0  0
 11 40  1  0  0  0
 12 13  1  0  0  0
 12 14  1  0  0  0
 12 66  1  0  0  0
 13 41  1  0  0  0
 13 42  1  0  0  0
 13 43  1  0  0  0
 14 44  1  0  0  0
 14 45  1  0  0  0
 14 46  1  0  0  0
 15 16  2  0  0  0
 16 17  1  0  0  0
 16 25  1  0  0  0
 17 18  1  0  0  0
 17 47  1  0  0  0
 18 24  1  0  0  0
 18 19  1  0  0  0
 18 48  1  0  0  0
 19 20  1  0  0  0
 19 49  1  0  0  0
 19 50  1  0  0  0
 20 21  1  0  0  0
 20 51  1  0  0  0
 20 52  1  0  0  0
 21 22  1  0  0  0
 21 23  1  0  0  0
 21 64  1  0  0  0
 22 53  1  0  0  0
 22 54  1  0  0  0
 22 55  1  0  0  0
 23 24  1  0  0  0
 23 56  1  0  0  0
 23 57  1  0  0  0
 24 58  1  0  0  0
 24 59  1  0  0  0
 25 26  1  0  0  0
 26 27  2  0  0  0
 26 60  1  0  0  0
 27 28  1  0  0  0
 28 29  1  0  0  0
 29 61  1  0  0  0
 29 62  1  0  0  0
 29 63  1  0  0  0
M  CHG  3   6   1  12   1  21   1
M  END
> <s_m_source_file>
/home/user-home/yujie/0_PBCNetv2/data/0_0_high_sim/0_noncov/Sries47256/ligprep_input.csv

> <i_m_source_file_index>
5

> <i_lp_mmshare_version>
51139

> <i_f3d_flags>
0

> <s_epik_input>
W0NIMl0xW0NIMl1OKFtDSDNdKVtDSDJdW0NIMl1bQ0hdMVtOSF1jKGMoYzIzKVtjSF1jKE9bQ0gzXSljKFtjSF0yKU9bQ0gzXSluYyhuMylOKFtDSDNdKVtDSDJdW0NIMl1OKFtDSDNdKVtDSDNd

> <s_epik_cmdline>
J2VwaWtfcHl0aG9uJywgJy1waHQnLCAnMi4wJywgJy1waCcsICc3LjQnLCAnLXRuJywgJzgnLCAnLW1hJywgJzIwMCcsICctaW1hZScsICc8aW5maWxlLm1hZT4nLCAnLW9tYWUnLCAnPG91dGZpbGUubWFlPic=

> <r_lp_tautomer_probability>
0.993508

> <r_epik_Ionization_Penalty>
  0.0747

> <r_epik_Ionization_Penalty_Charging>
  0.0746

> <r_epik_Ionization_Penalty_Neutral>
  0.0001

> <r_epik_State_Penalty>
  0.0073

> <r_epik_Charging_Adjusted_Penalty>
0.0818877

> <i_epik_Tot_Q>
3

> <i_epik_Tot_abs_Q>
3

> <s_lp_Force_Field>
OPLS3e

> <r_lp_Energy>
72.1331

> <b_lp_Chiralities_Consistent>
1

> <s_lp_Variant>
lig4-1

> <s_i_glide_gridfile>
Sries47258-001-gridgen

> <i_i_glide_lignum>
7

> <i_i_glide_rotatable_bonds>
8

> <r_i_docking_score>
-6.55377535166235

> <r_i_glide_ligand_efficiency>
-0.225992253505598

> <r_i_glide_ligand_efficiency_sa>
-0.694319802140584

> <r_i_glide_ligand_efficiency_ln>
-1.50064836612697

> <r_i_glide_gscore>
-6.56102718166235

> <r_i_glide_lipo>
-1.22236003652687

> <r_i_glide_hbond>
-0.298519676282955

> <r_i_glide_metal>
-0

> <r_i_glide_rewards>
-1.22331973299259

> <r_i_glide_evdw>
-35.5633659362793

> <r_i_glide_ecoul>
-16.2573661804199

> <r_i_glide_erotb>
0.597465912709437

> <r_i_glide_esite>
-0.197520424692412

> <r_i_glide_emodel>
-92.2728376762631

> <r_i_glide_energy>
-51.8207321166992

> <r_i_glide_einternal>
6.54242706298828

> <i_i_glide_confnum>
20

> <i_i_glide_posenum>
336

> <r_i_glide_eff_state_penalty>
0.00725183

$$$$
