lig18
                    3D
 Schrodinger Suite 2020-3.
 63 65  0  0  1  0            999 V2000
  -18.4838  -17.9365    1.1576 C   0  0  0  0  0  0
  -18.7596  -16.6905    0.5272 O   0  0  0  0  0  0
  -19.5545  -15.7554    1.1685 C   0  0  0  0  0  0
  -20.0792  -15.9480    2.4553 C   0  0  0  0  0  0
  -20.8741  -14.9504    3.0458 C   0  0  0  0  0  0
  -21.3423  -15.0784    4.3297 N   0  3  0  0  0  0
  -22.0779  -14.1301    4.9414 C   0  0  0  0  0  0
  -22.4702  -14.2618    6.3305 N   0  0  0  0  0  0
  -23.3465  -13.2365    6.9404 C   0  0  0  0  0  0
  -21.7292  -15.1967    7.2158 C   0  0  0  0  0  0
  -22.5822  -16.0451    8.1731 C   0  0  0  0  0  0
  -21.6730  -16.9237    9.0496 C   0  0  0  0  0  0
  -23.6118  -16.9033    7.4272 C   0  0  0  0  0  0
  -22.4544  -12.9974    4.2885 N   0  0  0  0  0  0
  -22.0000  -12.7933    3.0220 C   0  0  0  0  0  0
  -22.3274  -11.5858    2.3715 N   0  0  0  0  0  0
  -22.9937  -10.4690    3.0308 C   0  0  2  0  0  0
  -23.6063   -9.5626    1.9446 C   0  0  0  0  0  0
  -24.2307   -8.2855    2.5452 C   0  0  0  0  0  0
  -23.1616   -7.5546    3.3964 N   0  3  1  0  0  0
  -23.7457   -6.2594    4.0028 C   0  0  0  0  0  0
  -22.6267   -8.4631    4.5245 C   0  0  0  0  0  0
  -21.9679   -9.6844    3.8668 C   0  0  0  0  0  0
  -21.1895  -13.7522    2.3454 C   0  0  0  0  0  0
  -20.6545  -13.5913    1.0418 C   0  0  0  0  0  0
  -19.8256  -14.5655    0.4706 C   0  0  0  0  0  0
  -19.2322  -14.4062   -0.7695 O   0  0  0  0  0  0
  -19.4695  -13.2230   -1.5260 C   0  0  0  0  0  0
  -17.8739  -18.5484    0.4905 H   0  0  0  0  0  0
  -17.9277  -17.8066    2.0856 H   0  0  0  0  0  0
  -19.4010  -18.4926    1.3645 H   0  0  0  0  0  0
  -19.8793  -16.8426    3.0219 H   0  0  0  0  0  0
  -22.8093  -12.2858    7.0037 H   0  0  0  0  0  0
  -24.2398  -13.1010    6.3264 H   0  0  0  0  0  0
  -23.6647  -13.5292    7.9453 H   0  0  0  0  0  0
  -21.1262  -15.8774    6.6266 H   0  0  0  0  0  0
  -21.0236  -14.5941    7.7834 H   0  0  0  0  0  0
  -23.1270  -15.3816    8.8450 H   0  0  0  0  0  0
  -21.1093  -17.6425    8.4549 H   0  0  0  0  0  0
  -20.9545  -16.3228    9.6072 H   0  0  0  0  0  0
  -22.2638  -17.4783    9.7730 H   0  0  0  0  0  0
  -23.1354  -17.5606    6.7002 H   0  0  0  0  0  0
  -24.1843  -17.5255    8.1169 H   0  0  0  0  0  0
  -24.3272  -16.2702    6.9036 H   0  0  0  0  0  0
  -21.8047  -11.3677    1.5277 H   0  0  0  0  0  0
  -23.7767  -10.8611    3.6844 H   0  0  0  0  0  0
  -22.8511   -9.2841    1.2062 H   0  0  0  0  0  0
  -24.3730  -10.1092    1.3960 H   0  0  0  0  0  0
  -25.0725   -8.5094    3.2049 H   0  0  0  0  0  0
  -24.5602   -7.5902    1.7682 H   0  0  0  0  0  0
  -24.6029   -6.5230    4.6245 H   0  0  0  0  0  0
  -22.9600   -5.7872    4.5958 H   0  0  0  0  0  0
  -24.0378   -5.6112    3.1756 H   0  0  0  0  0  0
  -23.4773   -8.7321    5.1479 H   0  0  0  0  0  0
  -21.9270   -7.8771    5.1190 H   0  0  0  0  0  0
  -21.5346  -10.3334    4.6243 H   0  0  0  0  0  0
  -21.1274   -9.3548    3.2564 H   0  0  0  0  0  0
  -20.8757  -12.6793    0.5088 H   0  0  0  0  0  0
  -18.9184  -13.2842   -2.4642 H   0  0  0  0  0  0
  -19.1273  -12.3309   -0.9983 H   0  0  0  0  0  0
  -20.5271  -13.1136   -1.7727 H   0  0  0  0  0  0
  -22.3792   -7.3167    2.8009 H   0  0  0  0  0  0
  -21.1231  -15.9426    4.8380 H   0  0  0  0  0  0
  1  2  1  0  0  0
  1 29  1  0  0  0
  1 30  1  0  0  0
  1 31  1  0  0  0
  2  3  1  0  0  0
  3 26  1  0  0  0
  3  4  2  0  0  0
  4  5  1  0  0  0
  4 32  1  0  0  0
  5 24  2  0  0  0
  5  6  1  0  0  0
  6  7  2  0  0  0
  6 63  1  0  0  0
  7  8  1  0  0  0
  7 14  1  0  0  0
  8  9  1  0  0  0
  8 10  1  0  0  0
  9 33  1  0  0  0
  9 34  1  0  0  0
  9 35  1  0  0  0
 10 11  1  0  0  0
 10 36  1  0  0  0
 10 37  1  0  0  0
 11 12  1  0  0  0
 11 13  1  0  0  0
 11 38  1  0  0  0
 12 39  1  0  0  0
 12 40  1  0  0  0
 12 41  1  0  0  0
 13 42  1  0  0  0
 13 43  1  0  0  0
 13 44  1  0  0  0
 14 15  2  0  0  0
 15 16  1  0  0  0
 15 24  1  0  0  0
 16 17  1  0  0  0
 16 45  1  0  0  0
 17 23  1  0  0  0
 17 18  1  0  0  0
 17 46  1  0  0  0
 18 19  1  0  0  0
 18 47  1  0  0  0
 18 48  1  0  0  0
 19 20  1  0  0  0
 19 49  1  0  0  0
 19 50  1  0  0  0
 20 21  1  0  0  0
 20 22  1  0  0  0
 20 62  1  0  0  0
 21 51  1  0  0  0
 21 52  1  0  0  0
 21 53  1  0  0  0
 22 23  1  0  0  0
 22 54  1  0  0  0
 22 55  1  0  0  0
 23 56  1  0  0  0
 23 57  1  0  0  0
 24 25  1  0  0  0
 25 26  2  0  0  0
 25 58  1  0  0  0
 26 27  1  0  0  0
 27 28  1  0  0  0
 28 59  1  0  0  0
 28 60  1  0  0  0
 28 61  1  0  0  0
M  CHG  2   6   1  20   1
M  END
> <s_m_source_file>
/home/user-home/yujie/0_PBCNetv2/data/0_0_high_sim/0_noncov/Sries47256/ligprep_input.csv

> <i_m_source_file_index>
19

> <i_lp_mmshare_version>
51139

> <i_f3d_flags>
0

> <s_epik_input>
W0NIM11PYyhbY0hdMSljKE9bQ0gzXSlbY0hdYyhjMTIpYyhuYyhuMilOKFtDSDNdKVtDSDJdW0NIXShbQ0gzXSlbQ0gzXSlbTkhdW0NIXTNbQ0gyXVtDSDJdTihbQ0gzXSlbQ0gyXVtDSDJdMw==

> <s_epik_cmdline>
J2VwaWtfcHl0aG9uJywgJy1waHQnLCAnMi4wJywgJy1waCcsICc3LjQnLCAnLXRuJywgJzgnLCAnLW1hJywgJzIwMCcsICctaW1hZScsICc8aW5maWxlLm1hZT4nLCAnLW9tYWUnLCAnPG91dGZpbGUubWFlPic=

> <r_lp_tautomer_probability>
0.993508

> <r_epik_Ionization_Penalty>
  0.0108

> <r_epik_Ionization_Penalty_Charging>
  0.0107

> <r_epik_Ionization_Penalty_Neutral>
  0.0000

> <r_epik_State_Penalty>
  0.0069

> <r_epik_Charging_Adjusted_Penalty>
0.0176032

> <i_epik_Tot_Q>
2

> <i_epik_Tot_abs_Q>
2

> <s_lp_Force_Field>
OPLS3e

> <r_lp_Energy>
54.7817

> <b_lp_Chiralities_Consistent>
1

> <s_lp_Variant>
lig18-1

> <s_i_glide_gridfile>
Sries47258-001-gridgen

> <i_i_glide_lignum>
28

> <i_i_glide_rotatable_bonds>
7

> <r_i_docking_score>
-6.2895662338626

> <r_i_glide_ligand_efficiency>
-0.224627365495093

> <r_i_glide_ligand_efficiency_sa>
-0.68210098008625

> <r_i_glide_ligand_efficiency_ln>
-1.45181655646451

> <r_i_glide_gscore>
-6.2964593038626

> <r_i_glide_lipo>
-1.36256053411532

> <r_i_glide_hbond>
-0.335739727737269

> <r_i_glide_metal>
-0

> <r_i_glide_rewards>
-1.14402862969426

> <r_i_glide_evdw>
-41.6635704040527

> <r_i_glide_ecoul>
-11.4904012680054

> <r_i_glide_erotb>
0.513920619425419

> <r_i_glide_esite>
-0.16131232133773

> <r_i_glide_emodel>
-85.1680099781604

> <r_i_glide_energy>
-53.1539716720581

> <r_i_glide_einternal>
6.32081317901611

> <i_i_glide_confnum>
12

> <i_i_glide_posenum>
284

> <r_i_glide_eff_state_penalty>
0.00689307

$$$$
