lig20
                    3D
 Schrodinger Suite 2020-3.
 65 68  0  0  1  0            999 V2000
  -18.4720  -17.9280    1.1461 C   0  0  0  0  0  0
  -18.7382  -16.6758    0.5221 O   0  0  0  0  0  0
  -19.5317  -15.7426    1.1647 C   0  0  0  0  0  0
  -20.0577  -15.9375    2.4505 C   0  0  0  0  0  0
  -20.8546  -14.9406    3.0379 C   0  0  0  0  0  0
  -21.3404  -15.0785    4.3126 N   0  3  0  0  0  0
  -22.0984  -14.1491    4.9260 C   0  0  0  0  0  0
  -22.5608  -14.3404    6.2878 N   0  0  0  0  0  0
  -23.4880  -13.3691    6.9129 C   0  0  0  0  0  0
  -22.1334  -15.5594    7.0310 C   0  0  0  0  0  0
  -21.8746  -15.3208    8.5380 C   0  0  0  0  0  0
  -21.6418  -16.6527    9.2695 C   0  0  0  0  0  0
  -22.7747  -17.4783    9.0284 O   0  0  0  0  0  0
  -22.8766  -17.9121    7.6874 C   0  0  0  0  0  0
  -23.1483  -16.6963    6.7896 C   0  0  0  0  0  0
  -22.4556  -13.0035    4.2864 N   0  0  0  0  0  0
  -21.9952  -12.7921    3.0222 C   0  0  0  0  0  0
  -22.3267  -11.5825    2.3796 N   0  0  0  0  0  0
  -23.0107  -10.4798    3.0437 C   0  0  2  0  0  0
  -23.6715   -9.6116    1.9552 C   0  0  0  0  0  0
  -24.3205   -8.3483    2.5539 C   0  0  0  0  0  0
  -23.2482   -7.5684    3.3567 N   0  3  1  0  0  0
  -23.8571   -6.2832    3.9562 C   0  0  0  0  0  0
  -22.6447   -8.4342    4.4877 C   0  0  0  0  0  0
  -21.9842   -9.6635    3.8501 C   0  0  0  0  0  0
  -21.1777  -13.7453    2.3421 C   0  0  0  0  0  0
  -20.6409  -13.5830    1.0388 C   0  0  0  0  0  0
  -19.8052  -14.5531    0.4684 C   0  0  0  0  0  0
  -19.2089  -14.3896   -0.7687 O   0  0  0  0  0  0
  -19.4498  -13.2024   -1.5183 C   0  0  0  0  0  0
  -17.8539  -18.5343    0.4848 H   0  0  0  0  0  0
  -17.9308  -17.8064    2.0842 H   0  0  0  0  0  0
  -19.3926  -18.4817    1.3345 H   0  0  0  0  0  0
  -19.8545  -16.8290    3.0224 H   0  0  0  0  0  0
  -24.1311  -12.8983    6.1658 H   0  0  0  0  0  0
  -24.1343  -13.8739    7.6342 H   0  0  0  0  0  0
  -22.9066  -12.6005    7.4239 H   0  0  0  0  0  0
  -21.1699  -15.8712    6.6312 H   0  0  0  0  0  0
  -21.0056  -14.6795    8.6753 H   0  0  0  0  0  0
  -22.7268  -14.8377    9.0239 H   0  0  0  0  0  0
  -20.7244  -17.1327    8.9279 H   0  0  0  0  0  0
  -21.5260  -16.5032   10.3420 H   0  0  0  0  0  0
  -21.9554  -18.4248    7.4218 H   0  0  0  0  0  0
  -23.6831  -18.6423    7.6072 H   0  0  0  0  0  0
  -24.1550  -16.3363    7.0077 H   0  0  0  0  0  0
  -23.1274  -17.0102    5.7454 H   0  0  0  0  0  0
  -21.8053  -11.3567    1.5393 H   0  0  0  0  0  0
  -23.7702  -10.8799    3.7179 H   0  0  0  0  0  0
  -22.9416   -9.3250    1.1942 H   0  0  0  0  0  0
  -24.4343  -10.1921    1.4322 H   0  0  0  0  0  0
  -25.1275   -8.5978    3.2498 H   0  0  0  0  0  0
  -24.7032   -7.6787    1.7772 H   0  0  0  0  0  0
  -24.6707   -6.5722    4.6260 H   0  0  0  0  0  0
  -23.0630   -5.7646    4.4979 H   0  0  0  0  0  0
  -24.2181   -5.6731    3.1278 H   0  0  0  0  0  0
  -23.4620   -8.6993    5.1584 H   0  0  0  0  0  0
  -21.9272   -7.8206    5.0347 H   0  0  0  0  0  0
  -21.5364  -10.2878    4.6237 H   0  0  0  0  0  0
  -21.1582   -9.3345    3.2173 H   0  0  0  0  0  0
  -20.8707  -12.6785    0.5015 H   0  0  0  0  0  0
  -18.8787  -13.2450   -2.4455 H   0  0  0  0  0  0
  -19.1282  -12.3110   -0.9777 H   0  0  0  0  0  0
  -20.5029  -13.1024   -1.7833 H   0  0  0  0  0  0
  -22.4877   -7.3208    2.7302 H   0  0  0  0  0  0
  -21.1272  -15.9456    4.8090 H   0  0  0  0  0  0
  1  2  1  0  0  0
  1 31  1  0  0  0
  1 32  1  0  0  0
  1 33  1  0  0  0
  2  3  1  0  0  0
  3 28  1  0  0  0
  3  4  2  0  0  0
  4  5  1  0  0  0
  4 34  1  0  0  0
  5 26  2  0  0  0
  5  6  1  0  0  0
  6  7  2  0  0  0
  6 65  1  0  0  0
  7  8  1  0  0  0
  7 16  1  0  0  0
  8  9  1  0  0  0
  8 10  1  0  0  0
  9 35  1  0  0  0
  9 36  1  0  0  0
  9 37  1  0  0  0
 10 15  1  0  0  0
 10 11  1  0  0  0
 10 38  1  0  0  0
 11 12  1  0  0  0
 11 39  1  0  0  0
 11 40  1  0  0  0
 12 13  1  0  0  0
 12 41  1  0  0  0
 12 42  1  0  0  0
 13 14  1  0  0  0
 14 15  1  0  0  0
 14 43  1  0  0  0
 14 44  1  0  0  0
 15 45  1  0  0  0
 15 46  1  0  0  0
 16 17  2  0  0  0
 17 18  1  0  0  0
 17 26  1  0  0  0
 18 19  1  0  0  0
 18 47  1  0  0  0
 19 25  1  0  0  0
 19 20  1  0  0  0
 19 48  1  0  0  0
 20 21  1  0  0  0
 20 49  1  0  0  0
 20 50  1  0  0  0
 21 22  1  0  0  0
 21 51  1  0  0  0
 21 52  1  0  0  0
 22 23  1  0  0  0
 22 24  1  0  0  0
 22 64  1  0  0  0
 23 53  1  0  0  0
 23 54  1  0  0  0
 23 55  1  0  0  0
 24 25  1  0  0  0
 24 56  1  0  0  0
 24 57  1  0  0  0
 25 58  1  0  0  0
 25 59  1  0  0  0
 26 27  1  0  0  0
 27 28  2  0  0  0
 27 60  1  0  0  0
 28 29  1  0  0  0
 29 30  1  0  0  0
 30 61  1  0  0  0
 30 62  1  0  0  0
 30 63  1  0  0  0
M  CHG  2   6   1  22   1
M  END
> <s_m_source_file>
/home/user-home/yujie/0_PBCNetv2/data/0_0_high_sim/0_noncov/Sries47256/ligprep_input.csv

> <i_m_source_file_index>
21

> <i_lp_mmshare_version>
51139

> <i_f3d_flags>
0

> <s_epik_input>
W0NIMl0xW0NIMl1OKFtDSDNdKVtDSDJdW0NIMl1bQ0hdMVtOSF1jKGMoYzIzKVtjSF1jKE9bQ0gzXSljKFtjSF0yKU9bQ0gzXSluYyhuMylOKFtDSDNdKVtDSF00W0NIMl1bQ0gyXU9bQ0gyXVtDSDJdNA==

> <s_epik_cmdline>
J2VwaWtfcHl0aG9uJywgJy1waHQnLCAnMi4wJywgJy1waCcsICc3LjQnLCAnLXRuJywgJzgnLCAnLW1hJywgJzIwMCcsICctaW1hZScsICc8aW5maWxlLm1hZT4nLCAnLW9tYWUnLCAnPG91dGZpbGUubWFlPic=

> <r_lp_tautomer_probability>
1

> <r_epik_Ionization_Penalty>
  0.0061

> <r_epik_Ionization_Penalty_Charging>
  0.0061

> <r_epik_Ionization_Penalty_Neutral>
  0.0000

> <r_epik_State_Penalty>
 -0.0000

> <r_epik_Charging_Adjusted_Penalty>
0.00607284

> <i_epik_Tot_Q>
2

> <i_epik_Tot_abs_Q>
2

> <s_lp_Force_Field>
OPLS3e

> <r_lp_Energy>
58.4857

> <b_lp_Chiralities_Consistent>
1

> <s_lp_Variant>
lig20-1

> <s_i_glide_gridfile>
Sries47258-001-gridgen

> <i_i_glide_lignum>
32

> <i_i_glide_rotatable_bonds>
6

> <r_i_docking_score>
-6.14147736828127

> <r_i_glide_ligand_efficiency>
-0.204715912276042

> <r_i_glide_ligand_efficiency_sa>
-0.63609993638895

> <r_i_glide_ligand_efficiency_ln>
-1.39541057482904

> <r_i_glide_gscore>
-6.14147736828127

> <r_i_glide_lipo>
-1.43657213044225

> <r_i_glide_hbond>
-0.334273171993216

> <r_i_glide_metal>
-0

> <r_i_glide_rewards>
-0.852418434592744

> <r_i_glide_evdw>
-43.3876762390137

> <r_i_glide_ecoul>
-10.9527826309204

> <r_i_glide_erotb>
0.453497263718578

> <r_i_glide_esite>
-0.159409688382893

> <r_i_glide_emodel>
-87.1167808659636

> <r_i_glide_energy>
-54.3404588699341

> <r_i_glide_einternal>
1.72735333442688

> <i_i_glide_confnum>
14

> <i_i_glide_posenum>
353

> <r_i_glide_eff_state_penalty>
-0

$$$$
