lig28
                    3D
 Schrodinger Suite 2020-3.
 53 55  0  0  1  0            999 V2000
  -18.7684  -17.9622    1.6368 C   0  0  0  0  0  0
  -18.9701  -16.7744    0.8757 O   0  0  0  0  0  0
  -19.7563  -15.7597    1.3943 C   0  0  0  0  0  0
  -20.3795  -15.8391    2.6473 C   0  0  0  0  0  0
  -21.1438  -14.7667    3.1459 C   0  0  0  0  0  0
  -21.6606  -14.8647    4.3947 N   0  0  0  0  0  0
  -22.3475  -13.8078    4.8959 C   0  0  0  0  0  0
  -22.8100  -13.9058    6.2325 N   0  0  0  0  0  0
  -22.5826  -15.1182    7.0234 C   0  0  0  0  0  0
  -23.5774  -12.8183    6.8301 C   0  0  0  0  0  0
  -22.6053  -12.6664    4.2013 N   0  0  0  0  0  0
  -22.1030  -12.5640    2.9476 C   0  0  0  0  0  0
  -22.3267  -11.3788    2.2240 N   0  0  0  0  0  0
  -22.9577  -10.1413    2.6690 C   0  0  2  0  0  0
  -22.2031   -9.4701    3.8259 C   0  0  0  0  0  0
  -22.7444   -8.0403    4.0014 C   0  0  0  0  0  0
  -24.2810   -8.0894    4.2211 N   0  3  1  0  0  0
  -24.8397   -6.6493    4.2568 C   0  0  0  0  0  0
  -25.0677   -8.9164    3.1680 C   0  0  0  0  0  0
  -24.4384  -10.3142    3.0363 C   0  0  0  0  0  0
  -21.3345  -13.6069    2.3506 C   0  0  0  0  0  0
  -20.7267  -13.5581    1.0690 C   0  0  0  0  0  0
  -19.9131  -14.6060    0.6141 C   0  0  0  0  0  0
  -19.2192  -14.5524   -0.5813 O   0  0  0  0  0  0
  -19.3655  -13.4149   -1.4302 C   0  0  0  0  0  0
  -18.1127  -18.6368    1.0864 H   0  0  0  0  0  0
  -18.2919  -17.7482    2.5952 H   0  0  0  0  0  0
  -19.7085  -18.4866    1.8155 H   0  0  0  0  0  0
  -20.2681  -16.7002    3.2886 H   0  0  0  0  0  0
  -21.5138  -15.3161    7.1193 H   0  0  0  0  0  0
  -23.0118  -15.0507    8.0240 H   0  0  0  0  0  0
  -23.0232  -15.9827    6.5244 H   0  0  0  0  0  0
  -23.0254  -11.8810    6.7824 H   0  0  0  0  0  0
  -24.5029  -12.6769    6.2697 H   0  0  0  0  0  0
  -23.8422  -13.0087    7.8720 H   0  0  0  0  0  0
  -21.7985  -11.2820    1.3585 H   0  0  0  0  0  0
  -22.8776   -9.4893    1.7954 H   0  0  0  0  0  0
  -22.3272  -10.0349    4.7500 H   0  0  0  0  0  0
  -21.1302   -9.4364    3.6296 H   0  0  0  0  0  0
  -22.5473   -7.4168    3.1267 H   0  0  0  0  0  0
  -22.3219   -7.5606    4.8860 H   0  0  0  0  0  0
  -24.7147   -6.2058    3.2677 H   0  0  0  0  0  0
  -25.8917   -6.7127    4.5382 H   0  0  0  0  0  0
  -24.2786   -6.0884    5.0057 H   0  0  0  0  0  0
  -25.0353   -8.3646    2.2261 H   0  0  0  0  0  0
  -26.1014   -8.9730    3.5165 H   0  0  0  0  0  0
  -24.9573  -10.8869    2.2667 H   0  0  0  0  0  0
  -24.5562  -10.8671    3.9697 H   0  0  0  0  0  0
  -20.8688  -12.6759    0.4685 H   0  0  0  0  0  0
  -18.6815  -13.4928   -2.2742 H   0  0  0  0  0  0
  -19.1293  -12.4809   -0.9189 H   0  0  0  0  0  0
  -20.3794  -13.3506   -1.8277 H   0  0  0  0  0  0
  -24.4308   -8.5233    5.1252 H   0  0  0  0  0  0
  1  2  1  0  0  0
  1 26  1  0  0  0
  1 27  1  0  0  0
  1 28  1  0  0  0
  2  3  1  0  0  0
  3 23  1  0  0  0
  3  4  2  0  0  0
  4  5  1  0  0  0
  4 29  1  0  0  0
  5 21  2  0  0  0
  5  6  1  0  0  0
  6  7  2  0  0  0
  7  8  1  0  0  0
  7 11  1  0  0  0
  8  9  1  0  0  0
  8 10  1  0  0  0
  9 30  1  0  0  0
  9 31  1  0  0  0
  9 32  1  0  0  0
 10 33  1  0  0  0
 10 34  1  0  0  0
 10 35  1  0  0  0
 11 12  2  0  0  0
 12 13  1  0  0  0
 12 21  1  0  0  0
 13 14  1  0  0  0
 13 36  1  0  0  0
 14 20  1  0  0  0
 14 15  1  0  0  0
 14 37  1  0  0  0
 15 16  1  0  0  0
 15 38  1  0  0  0
 15 39  1  0  0  0
 16 17  1  0  0  0
 16 40  1  0  0  0
 16 41  1  0  0  0
 17 18  1  0  0  0
 17 19  1  0  0  0
 17 53  1  0  0  0
 18 42  1  0  0  0
 18 43  1  0  0  0
 18 44  1  0  0  0
 19 20  1  0  0  0
 19 45  1  0  0  0
 19 46  1  0  0  0
 20 47  1  0  0  0
 20 48  1  0  0  0
 21 22  1  0  0  0
 22 23  2  0  0  0
 22 49  1  0  0  0
 23 24  1  0  0  0
 24 25  1  0  0  0
 25 50  1  0  0  0
 25 51  1  0  0  0
 25 52  1  0  0  0
M  CHG  1  17   1
M  END
> <s_m_source_file>
/home/user-home/yujie/0_PBCNetv2/data/0_0_high_sim/0_noncov/Sries47256/ligprep_input.csv

> <i_m_source_file_index>
29

> <i_lp_mmshare_version>
51139

> <i_f3d_flags>
0

> <s_epik_input>
W0NIM11PYyhbY0hdMSljKE9bQ0gzXSlbY0hdYyhjMTIpYyhuYyhuMilOKFtDSDNdKVtDSDNdKVtOSF1bQ0hdM1tDSDJdW0NIMl1OKFtDSDNdKVtDSDJdW0NIMl0z

> <s_epik_cmdline>
J2VwaWtfcHl0aG9uJywgJy1waHQnLCAnMi4wJywgJy1waCcsICc3LjQnLCAnLXRuJywgJzgnLCAnLW1hJywgJzIwMCcsICctaW1hZScsICc8aW5maWxlLm1hZT4nLCAnLW9tYWUnLCAnPG91dGZpbGUubWFlPic=

> <r_lp_tautomer_probability>
0.999978

> <r_epik_Ionization_Penalty>
  2.6582

> <r_epik_Ionization_Penalty_Charging>
  0.0016

> <r_epik_Ionization_Penalty_Neutral>
  2.6566

> <r_epik_State_Penalty>
  2.6963

> <r_epik_Charging_Adjusted_Penalty>
2.69788

> <i_epik_Tot_Q>
1

> <i_epik_Tot_abs_Q>
1

> <s_lp_Force_Field>
OPLS3e

> <r_lp_Energy>
53.2582

> <b_lp_Chiralities_Consistent>
1

> <s_lp_Variant>
lig28-2

> <s_i_glide_gridfile>
Sries47258-001-gridgen

> <i_i_glide_lignum>
41

> <i_i_glide_rotatable_bonds>
5

> <r_i_docking_score>
-3.39982283827008

> <r_i_glide_ligand_efficiency>
-0.135992913530803

> <r_i_glide_ligand_efficiency_sa>
-0.39764569100866

> <r_i_glide_ligand_efficiency_ln>
-0.805859897138901

> <r_i_glide_gscore>
-6.09609283827008

> <r_i_glide_lipo>
-1.26345981268291

> <r_i_glide_hbond>
-0.16

> <r_i_glide_metal>
-0

> <r_i_glide_rewards>
-1.40987872631649

> <r_i_glide_evdw>
-40.1589241027832

> <r_i_glide_ecoul>
-9.84078311920166

> <r_i_glide_erotb>
0.316802701459089

> <r_i_glide_esite>
-0.0954933277103641

> <r_i_glide_emodel>
-73.4128955962611

> <r_i_glide_energy>
-49.9997072219849

> <r_i_glide_einternal>
3.09966921806335

> <i_i_glide_confnum>
2

> <i_i_glide_posenum>
55

> <r_i_glide_eff_state_penalty>
2.69627

$$$$
