lig26
                    3D
 Schrodinger Suite 2020-3.
 60 62  0  0  1  0            999 V2000
  -21.7064  -17.0794    8.8914 C   0  0  0  0  0  0
  -21.9236  -15.6916    8.2839 C   0  0  0  0  0  0
  -22.7307  -15.7320    6.9787 C   0  0  0  0  0  0
  -22.8037  -14.4162    6.3152 N   0  0  0  0  0  0
  -23.5749  -13.3366    6.9725 C   0  0  0  0  0  0
  -22.2086  -14.1984    5.0133 C   0  0  0  0  0  0
  -22.4772  -13.0114    4.4235 N   0  0  0  0  0  0
  -21.9923  -12.7642    3.1811 C   0  0  0  0  0  0
  -22.2359  -11.4935    2.6282 N   0  0  0  0  0  0
  -22.9281  -10.4229    3.3467 C   0  0  2  0  0  0
  -24.2763  -10.1571    2.6598 C   0  0  0  0  0  0
  -25.0148   -8.9921    3.3437 C   0  0  0  0  0  0
  -24.1051   -7.7406    3.2766 N   0  3  1  0  0  0
  -24.8213   -6.5239    3.9058 C   0  0  0  0  0  0
  -22.7442   -7.9640    3.9801 C   0  0  0  0  0  0
  -22.0372   -9.1666    3.3290 C   0  0  0  0  0  0
  -21.2367  -13.7412    2.4616 C   0  0  0  0  0  0
  -20.7273  -13.5782    1.1498 C   0  0  0  0  0  0
  -19.9209  -14.5452    0.5434 C   0  0  0  0  0  0
  -19.3612  -14.3756   -0.7097 O   0  0  0  0  0  0
  -19.6089  -13.1833   -1.4470 C   0  0  0  0  0  0
  -19.6506  -15.7476    1.2114 C   0  0  0  0  0  0
  -18.8793  -16.6787    0.5372 O   0  0  0  0  0  0
  -18.5863  -17.9349    1.1461 C   0  0  0  0  0  0
  -20.1666  -15.9617    2.4995 C   0  0  0  0  0  0
  -20.9419  -14.9634    3.1269 C   0  0  0  0  0  0
  -21.4449  -15.1231    4.3971 N   0  3  0  0  0  0
  -21.1727  -17.0074    9.8408 H   0  0  0  0  0  0
  -22.6634  -17.5688    9.0767 H   0  0  0  0  0  0
  -21.1208  -17.7146    8.2246 H   0  0  0  0  0  0
  -20.9578  -15.2126    8.1156 H   0  0  0  0  0  0
  -22.4632  -15.0784    9.0048 H   0  0  0  0  0  0
  -23.7592  -16.0355    7.1814 H   0  0  0  0  0  0
  -22.3288  -16.4742    6.2918 H   0  0  0  0  0  0
  -22.9383  -12.4573    7.0877 H   0  0  0  0  0  0
  -24.4389  -13.0764    6.3579 H   0  0  0  0  0  0
  -23.9278  -13.6517    7.9586 H   0  0  0  0  0  0
  -21.9110  -11.2966    1.6888 H   0  0  0  0  0  0
  -23.1115  -10.6959    4.3894 H   0  0  0  0  0  0
  -24.1368   -9.9408    1.5970 H   0  0  0  0  0  0
  -24.8985  -11.0509    2.7101 H   0  0  0  0  0  0
  -25.2174   -9.1923    4.4001 H   0  0  0  0  0  0
  -25.9507   -8.7479    2.8365 H   0  0  0  0  0  0
  -25.0288   -6.7402    4.9596 H   0  0  0  0  0  0
  -24.1550   -5.6604    3.8021 H   0  0  0  0  0  0
  -25.7494   -6.3596    3.3482 H   0  0  0  0  0  0
  -22.9410   -8.1348    5.0401 H   0  0  0  0  0  0
  -22.1660   -7.0450    3.8643 H   0  0  0  0  0  0
  -21.1197   -9.3659    3.8863 H   0  0  0  0  0  0
  -21.7265   -8.9146    2.3103 H   0  0  0  0  0  0
  -20.9670  -12.6782    0.6220 H   0  0  0  0  0  0
  -19.1078  -13.2552   -2.4123 H   0  0  0  0  0  0
  -19.2168  -12.2998   -0.9392 H   0  0  0  0  0  0
  -20.6755  -13.0433   -1.6398 H   0  0  0  0  0  0
  -17.9793  -18.5259    0.4613 H   0  0  0  0  0  0
  -18.0181  -17.8113    2.0678 H   0  0  0  0  0  0
  -19.4960  -18.4990    1.3529 H   0  0  0  0  0  0
  -19.9725  -16.8799    3.0245 H   0  0  0  0  0  0
  -23.9126   -7.5474    2.3006 H   0  0  0  0  0  0
  -21.2076  -15.9902    4.8904 H   0  0  0  0  0  0
  1  2  1  0  0  0
  1 28  1  0  0  0
  1 29  1  0  0  0
  1 30  1  0  0  0
  2  3  1  0  0  0
  2 31  1  0  0  0
  2 32  1  0  0  0
  3  4  1  0  0  0
  3 33  1  0  0  0
  3 34  1  0  0  0
  4  5  1  0  0  0
  4  6  1  0  0  0
  5 35  1  0  0  0
  5 36  1  0  0  0
  5 37  1  0  0  0
  6 27  1  0  0  0
  6  7  2  0  0  0
  7  8  1  0  0  0
  8  9  1  0  0  0
  8 17  2  0  0  0
  9 10  1  0  0  0
  9 38  1  0  0  0
 10 16  1  0  0  0
 10 11  1  0  0  0
 10 39  1  0  0  0
 11 12  1  0  0  0
 11 40  1  0  0  0
 11 41  1  0  0  0
 12 13  1  0  0  0
 12 42  1  0  0  0
 12 43  1  0  0  0
 13 14  1  0  0  0
 13 15  1  0  0  0
 13 59  1  0  0  0
 14 44  1  0  0  0
 14 45  1  0  0  0
 14 46  1  0  0  0
 15 16  1  0  0  0
 15 47  1  0  0  0
 15 48  1  0  0  0
 16 49  1  0  0  0
 16 50  1  0  0  0
 17 26  1  0  0  0
 17 18  1  0  0  0
 18 19  2  0  0  0
 18 51  1  0  0  0
 19 20  1  0  0  0
 19 22  1  0  0  0
 20 21  1  0  0  0
 21 52  1  0  0  0
 21 53  1  0  0  0
 21 54  1  0  0  0
 22 23  1  0  0  0
 22 25  2  0  0  0
 23 24  1  0  0  0
 24 55  1  0  0  0
 24 56  1  0  0  0
 24 57  1  0  0  0
 25 26  1  0  0  0
 25 58  1  0  0  0
 26 27  2  0  0  0
 27 60  1  0  0  0
M  CHG  2  13   1  27   1
M  END
> <s_m_source_file>
/home/user-home/yujie/0_PBCNetv2/data/0_0_high_sim/0_noncov/Sries47256/ligprep_input.csv

> <i_m_source_file_index>
27

> <i_lp_mmshare_version>
51139

> <i_f3d_flags>
0

> <s_epik_input>
W0NIM11PYyhbY0hdMSljKE9bQ0gzXSlbY0hdYyhjMTIpbmMoTihbQ0gzXSlbQ0gyXVtDSDJdW0NIM10pbmMyW05IXVtDSF0zW0NIMl1bQ0gyXU4oW0NIM10pW0NIMl1bQ0gyXTM=

> <s_epik_cmdline>
J2VwaWtfcHl0aG9uJywgJy1waHQnLCAnMi4wJywgJy1waCcsICc3LjQnLCAnLXRuJywgJzgnLCAnLW1hJywgJzIwMCcsICctaW1hZScsICc8aW5maWxlLm1hZT4nLCAnLW9tYWUnLCAnPG91dGZpbGUubWFlPic=

> <r_lp_tautomer_probability>
0.993508

> <r_epik_Ionization_Penalty>
  0.0094

> <r_epik_Ionization_Penalty_Charging>
  0.0094

> <r_epik_Ionization_Penalty_Neutral>
  0.0000

> <r_epik_State_Penalty>
  0.0058

> <r_epik_Charging_Adjusted_Penalty>
0.0152026

> <i_epik_Tot_Q>
2

> <i_epik_Tot_abs_Q>
2

> <s_lp_Force_Field>
OPLS3e

> <r_lp_Energy>
53.9706

> <b_lp_Chiralities_Consistent>
1

> <s_lp_Variant>
lig26-1

> <s_i_glide_gridfile>
Sries47258-001-gridgen

> <i_i_glide_lignum>
38

> <i_i_glide_rotatable_bonds>
7

> <r_i_docking_score>
-6.2428003220655

> <r_i_glide_ligand_efficiency>
-0.231214826743167

> <r_i_glide_ligand_efficiency_sa>
-0.693644479467454

> <r_i_glide_ligand_efficiency_ln>
-1.45322099436986

> <r_i_glide_gscore>
-6.2486224420655

> <r_i_glide_lipo>
-1.60153981519409

> <r_i_glide_hbond>
-0.279240101842289

> <r_i_glide_metal>
-0

> <r_i_glide_rewards>
-1.13238449366704

> <r_i_glide_evdw>
-40.0798645019531

> <r_i_glide_ecoul>
-10.9348697662354

> <r_i_glide_erotb>
0.548843331082391

> <r_i_glide_esite>
-0.140077672411509

> <r_i_glide_emodel>
-85.2112825572569

> <r_i_glide_energy>
-51.0147342681885

> <r_i_glide_einternal>
3.77714920043945

> <i_i_glide_confnum>
15

> <i_i_glide_posenum>
263

> <r_i_glide_eff_state_penalty>
0.00582212

$$$$
