lig11
                    3D
 Schrodinger Suite 2020-3.
 73 77  0  0  1  0            999 V2000
    0.1215  -30.3475   11.8317 C   0  0  0  0  0  0
    0.9942  -29.2231   11.8192 O   0  0  0  0  0  0
    1.7799  -28.9465   12.9291 C   0  0  0  0  0  0
    1.8317  -29.7830   14.0602 C   0  0  0  0  0  0
    2.6407  -29.4618   15.1486 C   0  0  0  0  0  0
    3.4159  -28.3045   15.1269 C   0  0  0  0  0  0
    3.3747  -27.4633   14.0195 C   0  0  0  0  0  0
    2.5632  -27.7761   12.9245 C   0  0  0  0  0  0
    2.5420  -26.8591   11.7907 C   0  0  0  0  0  0
    2.5109  -26.0586   10.8699 C   0  0  0  0  0  0
    2.4636  -25.0425    9.8268 C   0  0  0  0  0  0
    1.4776  -25.1347    8.8372 C   0  0  0  0  0  0
    1.3718  -24.1625    7.8357 C   0  0  0  0  0  0
    0.2899  -24.2555    6.8104 C   0  0  0  0  0  0
   -0.3014  -23.1658    6.3691 N   0  0  0  0  0  0
   -1.2921  -23.5752    5.5639 N   0  0  0  0  0  0
   -2.1611  -22.6050    4.8972 C   0  0  0  0  0  0
   -2.9382  -21.6794    5.8593 C   0  0  0  0  0  0
   -2.0406  -20.7056    6.6543 C   0  0  0  0  0  0
   -2.8014  -19.4800    7.2123 N   0  3  0  0  0  0
   -4.0140  -19.8614    8.0966 C   0  0  0  0  0  0
   -4.6877  -18.5727    8.6159 C   0  0  0  0  0  0
   -4.9883  -17.6886    7.5401 O   0  0  0  0  0  0
   -3.8537  -17.2476    6.7933 C   0  0  0  0  0  0
   -3.1750  -18.4550    6.1154 C   0  0  0  0  0  0
   -1.2839  -24.9355    5.4070 C   0  0  0  0  0  0
   -0.2320  -25.4069    6.1860 C   0  0  0  0  0  0
    0.0962  -26.8975    6.2489 C   0  0  0  0  0  0
   -0.5769  -27.5758    5.1031 N   0  0  1  0  0  0
   -0.0442  -29.2151    4.7055 S   0  0  0  0  0  0
   -0.5151  -30.2073    6.2310 C   0  0  0  0  0  0
   -0.8427  -29.7087    3.5766 O   0  0  0  0  0  0
    1.4179  -29.1968    4.6332 O   0  0  0  0  0  0
   -2.0267  -27.2719    4.9648 C   0  0  0  0  0  0
   -2.2555  -25.7857    4.5921 C   0  0  0  0  0  0
    2.2683  -23.0873    7.8389 C   0  0  0  0  0  0
    3.2652  -22.9963    8.8098 C   0  0  0  0  0  0
    3.3690  -23.9673    9.8079 C   0  0  0  0  0  0
    4.6194  -23.7887   10.9941 Cl  0  0  0  0  0  0
   -0.4306  -30.3801   10.8922 H   0  0  0  0  0  0
    0.6727  -31.2846   11.9207 H   0  0  0  0  0  0
   -0.6086  -30.2800   12.6398 H   0  0  0  0  0  0
    1.2436  -30.6866   14.1184 H   0  0  0  0  0  0
    2.6687  -30.1116   16.0128 H   0  0  0  0  0  0
    4.0406  -28.0534   15.9716 H   0  0  0  0  0  0
    3.9816  -26.5673   14.0160 H   0  0  0  0  0  0
    0.7749  -25.9545    8.8639 H   0  0  0  0  0  0
   -1.5356  -22.0114    4.2347 H   0  0  0  0  0  0
   -2.8614  -23.1421    4.2532 H   0  0  0  0  0  0
   -3.6677  -21.1303    5.2672 H   0  0  0  0  0  0
   -3.5181  -22.2923    6.5466 H   0  0  0  0  0  0
   -1.5915  -21.1773    7.5318 H   0  0  0  0  0  0
   -1.2348  -20.2847    6.0501 H   0  0  0  0  0  0
   -4.7057  -20.4343    7.4782 H   0  0  0  0  0  0
   -3.6452  -20.4935    8.9072 H   0  0  0  0  0  0
   -4.0731  -18.0585    9.3540 H   0  0  0  0  0  0
   -5.6195  -18.8236    9.1242 H   0  0  0  0  0  0
   -3.1569  -16.7072    7.4370 H   0  0  0  0  0  0
   -4.1848  -16.5331    6.0379 H   0  0  0  0  0  0
   -2.2523  -18.1850    5.5984 H   0  0  0  0  0  0
   -3.8494  -18.9382    5.4072 H   0  0  0  0  0  0
    1.1693  -27.0873    6.1947 H   0  0  0  0  0  0
   -0.2854  -27.3434    7.1673 H   0  0  0  0  0  0
   -0.2499  -31.2480    6.0541 H   0  0  0  0  0  0
    0.0390  -29.8180    7.0838 H   0  0  0  0  0  0
   -1.5874  -30.1164    6.3930 H   0  0  0  0  0  0
   -2.4864  -27.4430    5.9389 H   0  0  0  0  0  0
   -2.4814  -27.9390    4.2335 H   0  0  0  0  0  0
   -3.2923  -25.5074    4.7789 H   0  0  0  0  0  0
   -2.0624  -25.6492    3.5281 H   0  0  0  0  0  0
    2.2098  -22.3270    7.0765 H   0  0  0  0  0  0
    3.9553  -22.1670    8.7859 H   0  0  0  0  0  0
   -2.1395  -18.9964    7.7980 H   0  0  0  0  0  0
  1  2  1  0  0  0
  1 40  1  0  0  0
  1 41  1  0  0  0
  1 42  1  0  0  0
  2  3  1  0  0  0
  3  8  1  0  0  0
  3  4  2  0  0  0
  4  5  1  0  0  0
  4 43  1  0  0  0
  5  6  2  0  0  0
  5 44  1  0  0  0
  6  7  1  0  0  0
  6 45  1  0  0  0
  7  8  2  0  0  0
  7 46  1  0  0  0
  8  9  1  0  0  0
  9 10  3  0  0  0
 10 11  1  0  0  0
 11 38  1  0  0  0
 11 12  2  0  0  0
 12 13  1  0  0  0
 12 47  1  0  0  0
 13 14  1  0  0  0
 13 36  2  0  0  0
 14 27  1  0  0  0
 14 15  2  0  0  0
 15 16  1  0  0  0
 16 17  1  0  0  0
 16 26  1  0  0  0
 17 18  1  0  0  0
 17 48  1  0  0  0
 17 49  1  0  0  0
 18 19  1  0  0  0
 18 50  1  0  0  0
 18 51  1  0  0  0
 19 20  1  0  0  0
 19 52  1  0  0  0
 19 53  1  0  0  0
 20 25  1  0  0  0
 20 21  1  0  0  0
 20 73  1  0  0  0
 21 22  1  0  0  0
 21 54  1  0  0  0
 21 55  1  0  0  0
 22 23  1  0  0  0
 22 56  1  0  0  0
 22 57  1  0  0  0
 23 24  1  0  0  0
 24 25  1  0  0  0
 24 58  1  0  0  0
 24 59  1  0  0  0
 25 60  1  0  0  0
 25 61  1  0  0  0
 26 35  1  0  0  0
 26 27  2  0  0  0
 27 28  1  0  0  0
 28 29  1  0  0  0
 28 62  1  0  0  0
 28 63  1  0  0  0
 29 30  1  0  0  0
 29 34  1  0  0  0
 30 31  1  0  0  0
 30 32  2  0  0  0
 30 33  2  0  0  0
 31 64  1  0  0  0
 31 65  1  0  0  0
 31 66  1  0  0  0
 34 35  1  0  0  0
 34 67  1  0  0  0
 34 68  1  0  0  0
 35 69  1  0  0  0
 35 70  1  0  0  0
 36 37  1  0  0  0
 36 71  1  0  0  0
 37 38  2  0  0  0
 37 72  1  0  0  0
 38 39  1  0  0  0
M  CHG  1  20   1
M  END
> <s_m_source_file>
/home/user-home/yujie/0_PBCNetv2/data/0_0_high_sim/0_noncov/Sries20631/ligprep_input.csv

> <i_m_source_file_index>
12

> <i_lp_mmshare_version>
51139

> <i_f3d_flags>
0

> <s_epik_input>
W0NIM11PYzFbY0hdW2NIXVtjSF1bY0hdYzFDI0NjMltjSF1jKFtjSF1bY0hdYzJDbCktYyhjKGMzNClbQ0gyXU4oUyg9TykoPU8pW0NIM10pW0NIMl1bQ0gyXTQpbm4zW0NIMl1bQ0gyXVtDSDJdTjVbQ0gyXVtDSDJdT1tDSDJdW0NIMl01

> <s_epik_cmdline>
J2VwaWtfcHl0aG9uJywgJy1waHQnLCAnMi4wJywgJy1waCcsICc3LjQnLCAnLXRuJywgJzgnLCAnLW1hJywgJzIwMCcsICctaW1hZScsICc8aW5maWxlLm1hZT4nLCAnLW9tYWUnLCAnPG91dGZpbGUubWFlPic=

> <r_lp_tautomer_probability>
1

> <r_epik_Ionization_Penalty>
  0.7265

> <r_epik_Ionization_Penalty_Charging>
  0.7265

> <r_epik_Ionization_Penalty_Neutral>
  0.0000

> <r_epik_State_Penalty>
  0.7514

> <r_epik_Charging_Adjusted_Penalty>
1.47793

> <i_epik_Tot_Q>
1

> <i_epik_Tot_abs_Q>
1

> <s_lp_Force_Field>
OPLS3e

> <r_lp_Energy>
57.834

> <b_lp_Chiralities_Consistent>
1

> <s_lp_Variant>
lig11-2

> <s_i_glide_gridfile>
Sries20631-001-gridgen

> <i_i_glide_lignum>
24

> <i_i_glide_rotatable_bonds>
9

> <r_i_docking_score>
-6.31744624860127

> <r_i_glide_ligand_efficiency>
-0.161985801246186

> <r_i_glide_ligand_efficiency_sa>
-0.549328102121053

> <r_i_glide_ligand_efficiency_ln>
-1.35463980707625

> <r_i_glide_gscore>
-7.06885624860127

> <r_i_glide_lipo>
-4.45711224194589

> <r_i_glide_hbond>
0

> <r_i_glide_metal>
-0

> <r_i_glide_rewards>
-0.195931222229539

> <r_i_glide_evdw>
-47.2825965881348

> <r_i_glide_ecoul>
-2.08840870857239

> <r_i_glide_erotb>
0.294827050224975

> <r_i_glide_esite>
-0.0332486989582187

> <r_i_glide_emodel>
-69.8411145466536

> <r_i_glide_energy>
-49.3710052967072

> <r_i_glide_einternal>
8.33268547058105

> <i_i_glide_confnum>
2

> <i_i_glide_posenum>
341

> <r_i_glide_eff_state_penalty>
0.75141

$$$$
