GDM
                    3D
 Schrodinger Suite 2024-1.
 80 81  0  0  1  0            999 V2000
   11.0803   -2.0887  -10.2030 O   0  0  0  0  0  0
   10.0944   -7.8999   -6.1741 O   0  0  0  0  0  0
   11.0908   -7.4709   -3.8411 O   0  0  0  0  0  0
    9.9656   -7.4865   -1.8547 O   0  0  0  0  0  0
   14.4897   -3.9136   -5.6305 O   0  0  0  0  0  0
   17.2026   -3.8602   -3.9587 O   0  0  0  0  0  0
   16.3641    0.9862   -7.4789 O   0  0  0  0  0  0
   15.4623    0.0459   -9.9069 O   0  0  0  0  0  0
   12.3410   -0.7526   -5.6266 O   0  0  0  0  0  0
   11.4625   -1.7432   -7.9770 N   0  0  0  0  0  0
   11.5631   -9.0861   -2.4276 N   0  0  0  0  0  0
   10.7710   -2.2411   -9.0225 C   0  0  0  0  0  0
    9.6019   -2.9883   -8.5795 C   0  0  0  0  0  0
    9.7800   -3.9933   -7.6923 C   0  0  0  0  0  0
    8.7043   -4.7768   -7.1139 C   0  0  0  0  0  0
    8.8648   -5.8389   -6.3058 C   0  0  0  0  0  0
   10.1665   -6.5088   -5.8778 C   0  0  1  0  0  0
   10.4109   -6.3256   -4.3605 C   0  0  2  0  0  0
   11.1768   -5.0356   -4.0416 C   0  0  0  0  0  0
   12.5051   -5.0501   -3.8057 C   0  0  0  0  0  0
   13.4202   -3.8761   -3.4844 C   0  0  2  0  0  0
   14.7694   -4.0542   -4.2471 C   0  0  2  0  0  0
   15.9727   -3.1380   -3.8509 C   0  0  2  0  0  0
   16.0843   -1.7468   -4.5328 C   0  0  0  0  0  0
   15.0643   -0.6915   -4.0476 C   0  0  2  0  0  0
   14.8681    0.4793   -5.0467 C   0  0  0  0  0  0
   14.4246    0.0736   -6.4590 C   0  0  0  0  0  0
   15.1692    0.3282   -7.5640 C   0  0  0  0  0  0
   14.7581   -0.1182   -8.9126 C   0  0  0  0  0  0
   13.4644   -0.7978   -9.0205 C   0  0  0  0  0  0
   12.6813   -1.0492   -7.9427 C   0  0  0  0  0  0
   13.0960   -0.5978   -6.5889 C   0  0  0  0  0  0
    8.2496   -2.5896   -9.1484 C   0  0  0  0  0  0
   10.2623   -8.2104   -7.5518 C   0  0  0  0  0  0
   10.7869   -7.9678   -2.6346 C   0  0  0  0  0  0
   10.3308   -3.7761   -3.9777 C   0  0  0  0  0  0
   13.5222   -3.7553   -1.9483 C   0  0  0  0  0  0
   17.6213   -4.2376   -5.2666 C   0  0  0  0  0  0
   15.4258   -0.1400   -2.6560 C   0  0  0  0  0  0
   16.2803    2.3693   -7.8063 C   0  0  0  0  0  0
   14.0273   -4.6826   -5.9354 H   0  0  0  0  0  0
   11.0703   -1.9114   -7.0606 H   0  0  0  0  0  0
   12.2474   -9.3075   -3.1334 H   0  0  0  0  0  0
   11.4536   -9.6616   -1.5862 H   0  0  0  0  0  0
   10.7862   -4.2078   -7.3637 H   0  0  0  0  0  0
    7.6846   -4.4742   -7.3105 H   0  0  0  0  0  0
    7.9728   -6.3185   -5.9259 H   0  0  0  0  0  0
   11.0253   -6.1050   -6.4132 H   0  0  0  0  0  0
    9.4371   -6.2651   -3.8769 H   0  0  0  0  0  0
   13.0201   -5.9968   -3.8553 H   0  0  0  0  0  0
   12.9433   -2.9700   -3.8513 H   0  0  0  0  0  0
   15.0974   -5.0801   -4.0849 H   0  0  0  0  0  0
   15.9321   -2.9739   -2.7781 H   0  0  0  0  0  0
   16.0192   -1.8735   -5.6125 H   0  0  0  0  0  0
   17.0866   -1.3556   -4.3609 H   0  0  0  0  0  0
   14.1055   -1.1805   -3.9293 H   0  0  0  0  0  0
   14.1183    1.1580   -4.6480 H   0  0  0  0  0  0
   15.7921    1.0546   -5.0991 H   0  0  0  0  0  0
   13.1922   -1.0866  -10.0197 H   0  0  0  0  0  0
    8.3547   -1.9890  -10.0544 H   0  0  0  0  0  0
    7.6595   -3.4679   -9.4107 H   0  0  0  0  0  0
    7.6942   -2.0030   -8.4164 H   0  0  0  0  0  0
   10.2109   -9.2917   -7.6843 H   0  0  0  0  0  0
    9.4818   -7.7607   -8.1668 H   0  0  0  0  0  0
   11.2350   -7.8750   -7.9184 H   0  0  0  0  0  0
   10.1171   -3.4143   -4.9811 H   0  0  0  0  0  0
    9.3879   -3.9910   -3.4840 H   0  0  0  0  0  0
   10.8109   -2.9750   -3.4201 H   0  0  0  0  0  0
   12.5277   -3.6410   -1.5135 H   0  0  0  0  0  0
   13.9647   -4.6368   -1.4789 H   0  0  0  0  0  0
   14.0884   -2.8780   -1.6401 H   0  0  0  0  0  0
   18.5794   -4.7528   -5.1985 H   0  0  0  0  0  0
   16.9228   -4.9256   -5.7425 H   0  0  0  0  0  0
   17.7638   -3.3744   -5.9179 H   0  0  0  0  0  0
   16.3651    0.4124   -2.6725 H   0  0  0  0  0  0
   15.5281   -0.9334   -1.9187 H   0  0  0  0  0  0
   14.6537    0.5384   -2.2918 H   0  0  0  0  0  0
   17.2777    2.8029   -7.8570 H   0  0  0  0  0  0
   15.8106    2.5373   -8.7760 H   0  0  0  0  0  0
   15.7144    2.9160   -7.0538 H   0  0  0  0  0  0
  1 12  2  0  0  0
  2 17  1  0  0  0
  2 34  1  0  0  0
  3 18  1  0  0  0
  3 35  1  0  0  0
  4 35  2  0  0  0
  5 22  1  0  0  0
  5 41  1  0  0  0
  6 23  1  0  0  0
  6 38  1  0  0  0
  7 28  1  0  0  0
  7 40  1  0  0  0
  8 29  2  0  0  0
  9 32  2  0  0  0
 10 12  1  0  0  0
 10 31  1  0  0  0
 10 42  1  0  0  0
 11 35  1  0  0  0
 11 43  1  0  0  0
 11 44  1  0  0  0
 12 13  1  0  0  0
 13 14  2  0  0  0
 13 33  1  0  0  0
 14 15  1  0  0  0
 14 45  1  0  0  0
 15 16  2  0  0  0
 15 46  1  0  0  0
 16 17  1  0  0  0
 16 47  1  0  0  0
 17 18  1  0  0  0
 17 48  1  0  0  0
 18 19  1  0  0  0
 18 49  1  0  0  0
 19 20  2  0  0  0
 19 36  1  0  0  0
 20 21  1  0  0  0
 20 50  1  0  0  0
 21 22  1  0  0  0
 21 37  1  0  0  0
 21 51  1  0  0  0
 22 23  1  0  0  0
 22 52  1  0  0  0
 23 24  1  0  0  0
 23 53  1  0  0  0
 24 25  1  0  0  0
 24 54  1  0  0  0
 24 55  1  0  0  0
 25 26  1  0  0  0
 25 39  1  0  0  0
 25 56  1  0  0  0
 26 27  1  0  0  0
 26 57  1  0  0  0
 26 58  1  0  0  0
 27 28  2  0  0  0
 27 32  1  0  0  0
 28 29  1  0  0  0
 29 30  1  0  0  0
 30 31  2  0  0  0
 30 59  1  0  0  0
 31 32  1  0  0  0
 33 60  1  0  0  0
 33 61  1  0  0  0
 33 62  1  0  0  0
 34 63  1  0  0  0
 34 64  1  0  0  0
 34 65  1  0  0  0
 36 66  1  0  0  0
 36 67  1  0  0  0
 36 68  1  0  0  0
 37 69  1  0  0  0
 37 70  1  0  0  0
 37 71  1  0  0  0
 38 72  1  0  0  0
 38 73  1  0  0  0
 38 74  1  0  0  0
 39 75  1  0  0  0
 39 76  1  0  0  0
 39 77  1  0  0  0
 40 78  1  0  0  0
 40 79  1  0  0  0
 40 80  1  0  0  0
M  END
> <Tot Q>
0

> <flags>
0

> <Source File Index>
4

> <stars>
0

> <subgroup collapsed>
0

> <Ionization Penalty>
0.1377

> <State Penalty>
0.1406

> <docking score>
-5.09546

> <glide emodel>
-57.7794

> <glide gscore>
-5.23606

> <tautomer probability>
1

> <Source File>
glide-dock_SP_P02829_E88G_N92L_pv.maegz

> <Source Path>
C:\Users\yujie\Desktop\res\docking\P02829\glide-dock_SP_P02829_E88G_N92L

> <entry id>
1634

> <subgroup title>
glide-dock_SP_P02829_E88G_N92L_pv

> <subgroupid>
glide-dock_SP_P02829_E88G_N92L_pv

$$$$
