GDM
                    3D
 Schrodinger Suite 2024-1.
 80 81  0  0  1  0            999 V2000
   16.2052   -2.4485   -1.8630 O   0  0  0  0  0  0
   15.2762    0.8638   -6.6125 O   0  0  0  0  0  0
   15.5313   -2.0539   -7.7389 O   0  0  0  0  0  0
   16.7130   -3.0405   -9.4243 O   0  0  0  0  0  0
   11.1124   -3.0534   -9.3068 O   0  0  0  0  0  0
   10.0412   -2.2370   -5.9103 O   0  0  0  0  0  0
   10.6285   -6.0716   -2.7259 O   0  0  0  0  0  0
   11.9125   -4.6528   -0.7631 O   0  0  0  0  0  0
   13.9217   -4.3963   -5.7292 O   0  0  0  0  0  0
   15.2281   -3.0052   -3.8446 N   0  0  0  0  0  0
   16.3397   -4.0844   -7.3903 N   0  0  0  0  0  0
   16.1854   -2.4221   -3.0929 C   0  0  0  0  0  0
   17.2456   -1.8368   -3.9178 C   0  0  0  0  0  0
   16.9193   -1.1827   -5.0618 C   0  0  0  0  0  0
   17.8518   -0.6533   -6.0491 C   0  0  0  0  0  0
   17.4979   -0.0133   -7.1839 C   0  0  0  0  0  0
   16.0924    0.3490   -7.6614 C   0  0  1  0  0  0
   15.3869   -0.8038   -8.4194 C   0  0  2  0  0  0
   13.9299   -0.5075   -8.7697 C   0  0  0  0  0  0
   12.9039   -1.0205   -8.0542 C   0  0  0  0  0  0
   11.4106   -0.8880   -8.3407 C   0  0  1  0  0  0
   10.6393   -2.2394   -8.2462 C   0  0  2  0  0  0
   10.7069   -3.0238   -6.8988 C   0  0  2  0  0  0
    9.9732   -4.3868   -6.9782 C   0  0  0  0  0  0
   10.0590   -5.2957   -5.7258 C   0  0  2  0  0  0
   11.4792   -5.8839   -5.4819 C   0  0  0  0  0  0
   12.2041   -5.2400   -4.2995 C   0  0  0  0  0  0
   11.7430   -5.3347   -3.0272 C   0  0  0  0  0  0
   12.3711   -4.6056   -1.9048 C   0  0  0  0  0  0
   13.5664   -3.7998   -2.2247 C   0  0  0  0  0  0
   14.0880   -3.7367   -3.4751 C   0  0  0  0  0  0
   13.4401   -4.4592   -4.5974 C   0  0  0  0  0  0
   18.6738   -2.0827   -3.4485 C   0  0  0  0  0  0
   15.5125    2.2412   -6.3511 C   0  0  0  0  0  0
   16.2414   -3.0526   -8.2908 C   0  0  0  0  0  0
   13.7598    0.3365  -10.0258 C   0  0  0  0  0  0
   10.7948    0.2497   -7.5063 C   0  0  0  0  0  0
   10.8150   -1.9643   -4.7520 C   0  0  0  0  0  0
    9.0315   -6.4341   -5.8344 C   0  0  0  0  0  0
   10.9157   -7.4207   -2.3815 C   0  0  0  0  0  0
   10.6671   -3.8876   -9.2623 H   0  0  0  0  0  0
   15.3752   -2.9562   -4.8437 H   0  0  0  0  0  0
   15.6939   -4.0793   -6.6142 H   0  0  0  0  0  0
   16.7617   -4.9395   -7.7211 H   0  0  0  0  0  0
   15.8720   -1.0628   -5.2950 H   0  0  0  0  0  0
   18.9107   -0.8069   -5.9061 H   0  0  0  0  0  0
   18.2919    0.2960   -7.8481 H   0  0  0  0  0  0
   16.2248    1.1489   -8.3933 H   0  0  0  0  0  0
   15.8920   -0.8690   -9.3833 H   0  0  0  0  0  0
   13.1449   -1.5994   -7.1750 H   0  0  0  0  0  0
   11.2877   -0.5758   -9.3767 H   0  0  0  0  0  0
    9.5891   -2.0465   -8.4644 H   0  0  0  0  0  0
   11.7497   -3.2072   -6.6456 H   0  0  0  0  0  0
   10.3459   -4.9664   -7.8216 H   0  0  0  0  0  0
    8.9243   -4.1870   -7.1996 H   0  0  0  0  0  0
    9.7486   -4.7052   -4.8614 H   0  0  0  0  0  0
   11.4098   -6.9481   -5.2592 H   0  0  0  0  0  0
   12.0675   -5.8479   -6.4002 H   0  0  0  0  0  0
   14.0069   -3.2533   -1.4077 H   0  0  0  0  0  0
   18.7661   -1.8863   -2.3788 H   0  0  0  0  0  0
   18.9520   -3.1214   -3.6249 H   0  0  0  0  0  0
   19.4061   -1.4471   -3.9421 H   0  0  0  0  0  0
   15.0209    2.5339   -5.4250 H   0  0  0  0  0  0
   16.5723    2.4720   -6.2462 H   0  0  0  0  0  0
   15.1084    2.8572   -7.1562 H   0  0  0  0  0  0
   14.4472    1.1825  -10.0015 H   0  0  0  0  0  0
   13.9910   -0.2526  -10.9135 H   0  0  0  0  0  0
   12.7606    0.7524  -10.1346 H   0  0  0  0  0  0
   11.2246    1.2086   -7.7976 H   0  0  0  0  0  0
    9.7172    0.3159   -7.6620 H   0  0  0  0  0  0
   10.9800    0.1333   -6.4399 H   0  0  0  0  0  0
   10.3148   -1.1971   -4.1654 H   0  0  0  0  0  0
   10.9124   -2.8433   -4.1195 H   0  0  0  0  0  0
   11.8134   -1.5954   -4.9973 H   0  0  0  0  0  0
    9.2512   -7.0906   -6.6764 H   0  0  0  0  0  0
    8.0212   -6.0488   -5.9670 H   0  0  0  0  0  0
    9.0262   -7.0439   -4.9292 H   0  0  0  0  0  0
    9.9813   -7.9619   -2.2223 H   0  0  0  0  0  0
   11.4686   -7.9375   -3.1663 H   0  0  0  0  0  0
   11.4973   -7.4750   -1.4598 H   0  0  0  0  0  0
  1 12  2  0  0  0
  2 17  1  0  0  0
  2 34  1  0  0  0
  3 18  1  0  0  0
  3 35  1  0  0  0
  4 35  2  0  0  0
  5 22  1  0  0  0
  5 41  1  0  0  0
  6 23  1  0  0  0
  6 38  1  0  0  0
  7 28  1  0  0  0
  7 40  1  0  0  0
  8 29  2  0  0  0
  9 32  2  0  0  0
 10 12  1  0  0  0
 10 31  1  0  0  0
 10 42  1  0  0  0
 11 35  1  0  0  0
 11 43  1  0  0  0
 11 44  1  0  0  0
 12 13  1  0  0  0
 13 14  2  0  0  0
 13 33  1  0  0  0
 14 15  1  0  0  0
 14 45  1  0  0  0
 15 16  2  0  0  0
 15 46  1  0  0  0
 16 17  1  0  0  0
 16 47  1  0  0  0
 17 18  1  0  0  0
 17 48  1  0  0  0
 18 19  1  0  0  0
 18 49  1  0  0  0
 19 20  2  0  0  0
 19 36  1  0  0  0
 20 21  1  0  0  0
 20 50  1  0  0  0
 21 22  1  0  0  0
 21 37  1  0  0  0
 21 51  1  0  0  0
 22 23  1  0  0  0
 22 52  1  0  0  0
 23 24  1  0  0  0
 23 53  1  0  0  0
 24 25  1  0  0  0
 24 54  1  0  0  0
 24 55  1  0  0  0
 25 26  1  0  0  0
 25 39  1  0  0  0
 25 56  1  0  0  0
 26 27  1  0  0  0
 26 57  1  0  0  0
 26 58  1  0  0  0
 27 28  2  0  0  0
 27 32  1  0  0  0
 28 29  1  0  0  0
 29 30  1  0  0  0
 30 31  2  0  0  0
 30 59  1  0  0  0
 31 32  1  0  0  0
 33 60  1  0  0  0
 33 61  1  0  0  0
 33 62  1  0  0  0
 34 63  1  0  0  0
 34 64  1  0  0  0
 34 65  1  0  0  0
 36 66  1  0  0  0
 36 67  1  0  0  0
 36 68  1  0  0  0
 37 69  1  0  0  0
 37 70  1  0  0  0
 37 71  1  0  0  0
 38 72  1  0  0  0
 38 73  1  0  0  0
 38 74  1  0  0  0
 39 75  1  0  0  0
 39 76  1  0  0  0
 39 77  1  0  0  0
 40 78  1  0  0  0
 40 79  1  0  0  0
 40 80  1  0  0  0
M  END
> <i_epik_Tot_Q>
0

> <i_epik_Tot_abs_Q>
0

> <i_f3d_flags>
0

> <i_i_glide_confnum>
7

> <i_i_glide_lignum>
1

> <i_i_glide_posenum>
195

> <i_i_glide_rotatable_bonds>
6

> <i_lp_mmshare_version>
65135

> <i_m_Source_File_Index>
1

> <i_m_source_file_index>
1

> <i_m_stars>
0

> <b_lp_Chiralities_Consistent>
1

> <b_m_subgroup_collapsed>
0

> <r_epik_Charging_Adjusted_Penalty>
0.140557

> <r_epik_Ionization_Penalty>
0.1377

> <r_epik_Ionization_Penalty_Charging>
0

> <r_epik_Ionization_Penalty_Neutral>
0.1377

> <r_epik_State_Penalty>
0.1406

> <r_i_docking_score>
-5.41108

> <r_i_glide_ecoul>
-10.0875

> <r_i_glide_eff_state_penalty>
0.1406

> <r_i_glide_einternal>
2.30754

> <r_i_glide_emodel>
-70.7409

> <r_i_glide_energy>
-53.2134

> <r_i_glide_erotb>
0.066149

> <r_i_glide_esite>
-0.102694

> <r_i_glide_evdw>
-43.1258

> <r_i_glide_gscore>
-5.55168

> <r_i_glide_hbond>
-0.497655

> <r_i_glide_ligand_efficiency>
-0.135277

> <r_i_glide_ligand_efficiency_ln>
-1.15402

> <r_i_glide_ligand_efficiency_sa>
-0.462641

> <r_i_glide_lipo>
-0.938029

> <r_i_glide_metal>
0

> <r_i_glide_rewards>
-0.410028

> <r_lp_Energy>
51.7337

> <r_lp_tautomer_probability>
1

> <s_epik_Chemistry_Notes>
This compound has an ester and may undergo hydrolysis at high or low pH.

> <s_epik_cmdline>
J2VwaWtfcHl0aG9uJywgJy1waCcsICc3LjAnLCAnLXRuJywgJzgnLCAnLW1hJywgJzUwMCcsICctaW1hZScsICc8aW5maWxlLm1hZT4nLCAnLW9tYWUnLCAnPG91dGZpbGUubWFlPic=

> <s_epik_input>
W0NIM11PQyg9QzEyKUMoPU8pW0NIXT1DKEMyPU8pW05IXUMoPU8pL0MoW0NIM10pPVtDSF0vW0NIXT1bQ0hdXFtDQEhdKE9bQ0gzXSlbQ0BASF0oT0MoPU8pW05IMl0pL0MoW0NIM10pPVtDSF0vW0NASF0oW0NIM10pW0NAQEhdKFtPSF0pW0NAQEhdKE9bQ0gzXSlbQ0gyXVtDQEhdKFtDSDJdMSlbQ0gzXQ==

> <s_i_glide_gridfile>
glide-grid_P02829_L89V

> <s_lp_Force_Field>
S-OPLS

> <s_lp_Variant>
GDM-1

> <s_m_Source_File>
glide-dock_SP_P02829_L89V_pv.maegz

> <s_m_Source_Path>
D:\project\glide-dock_SP_P02829_L89V

> <s_m_entry_id>
291

> <s_m_entry_name>
Structure93

> <s_m_job_name>
glide-dock_SP_P02829_L89V

> <s_m_source_file>
ligprep_GDM.maegz

> <s_m_subgroup_title>
glide-dock_SP_P02829_L89V_pv

> <s_m_subgroupid>
glide-dock_SP_P02829_L89V_pv

> <s_pdb_PDB_format_version>
3.0

$$$$
