GDM
                    3D
 Schrodinger Suite 2024-1.
 80 81  0  0  1  0            999 V2000
   10.4032   -1.1604   -5.0756 O   0  0  0  0  0  0
   17.4708   -2.5760   -2.9573 O   0  0  0  0  0  0
   18.2088   -3.9577   -5.4763 O   0  0  0  0  0  0
   20.3370   -3.0929   -5.2608 O   0  0  0  0  0  0
   17.1664   -0.2936   -9.4755 O   0  0  0  0  0  0
   15.8374    2.4636  -10.3625 O   0  0  0  0  0  0
   10.8193    2.8610  -10.4290 O   0  0  0  0  0  0
    9.7421    2.8328   -7.8761 O   0  0  0  0  0  0
   12.3690   -1.4928   -9.4711 O   0  0  0  0  0  0
   11.9028   -1.3244   -6.7832 N   0  0  0  0  0  0
   19.9662   -5.3489   -5.4758 N   0  0  0  0  0  0
   11.4100   -1.6716   -5.5762 C   0  0  0  0  0  0
   12.1448   -2.7807   -4.9633 C   0  0  0  0  0  0
   13.4941   -2.7242   -4.8124 C   0  0  0  0  0  0
   14.3004   -3.8068   -4.2588 C   0  0  0  0  0  0
   15.6267   -3.7859   -3.9964 C   0  0  0  0  0  0
   16.6210   -2.6339   -4.0976 C   0  0  2  0  0  0
   17.5380   -2.6937   -5.3502 C   0  0  2  0  0  0
   16.7379   -2.2852   -6.5858 C   0  0  0  0  0  0
   16.5257   -0.9676   -6.7821 C   0  0  0  0  0  0
   15.5467   -0.2675   -7.7181 C   0  0  2  0  0  0
   16.2650    0.5649   -8.8111 C   0  0  2  0  0  0
   15.3181    1.2350   -9.8568 C   0  0  2  0  0  0
   14.7815    0.3273  -10.9922 C   0  0  0  0  0  0
   13.6308    0.9830  -11.8053 C   0  0  2  0  0  0
   12.1934    0.5162  -11.4439 C   0  0  0  0  0  0
   11.7342    0.7213   -9.9919 C   0  0  0  0  0  0
   11.0717    1.8255   -9.5687 C   0  0  0  0  0  0
   10.4949    1.9175   -8.2024 C   0  0  0  0  0  0
   10.8381    0.8370   -7.2553 C   0  0  0  0  0  0
   11.5057   -0.2785   -7.6452 C   0  0  0  0  0  0
   11.9137   -0.4292   -9.0671 C   0  0  0  0  0  0
   11.3216   -3.9757   -4.5036 C   0  0  0  0  0  0
   16.8322   -2.1444   -1.7651 C   0  0  0  0  0  0
   19.5658   -4.0376   -5.3912 C   0  0  0  0  0  0
   16.1356   -3.3953   -7.4387 C   0  0  0  0  0  0
   14.6877    0.6249   -6.8083 C   0  0  0  0  0  0
   17.1037    2.4327  -11.0074 C   0  0  0  0  0  0
   13.8667    0.7926  -13.3165 C   0  0  0  0  0  0
   11.6577    3.9925  -10.2325 C   0  0  0  0  0  0
   17.8282    0.2423   -9.8877 H   0  0  0  0  0  0
   12.6373   -1.9155   -7.1478 H   0  0  0  0  0  0
   19.2628   -6.0475   -5.6758 H   0  0  0  0  0  0
   20.9659   -5.5446   -5.4696 H   0  0  0  0  0  0
   14.0191   -1.8468   -5.1435 H   0  0  0  0  0  0
   13.8140   -4.7536   -4.0784 H   0  0  0  0  0  0
   16.0664   -4.6895   -3.6139 H   0  0  0  0  0  0
   16.0647   -1.6955   -4.1340 H   0  0  0  0  0  0
   18.2761   -1.9015   -5.2140 H   0  0  0  0  0  0
   17.0201   -0.2898   -6.1010 H   0  0  0  0  0  0
   14.9029   -1.0021   -8.1992 H   0  0  0  0  0  0
   16.8459    1.3417   -8.3096 H   0  0  0  0  0  0
   14.4358    1.5843   -9.3298 H   0  0  0  0  0  0
   14.4574   -0.6278  -10.5874 H   0  0  0  0  0  0
   15.6036    0.0665  -11.6563 H   0  0  0  0  0  0
   13.6768    2.0583  -11.6419 H   0  0  0  0  0  0
   11.4937    1.0626  -12.0774 H   0  0  0  0  0  0
   12.0537   -0.5246  -11.7376 H   0  0  0  0  0  0
   10.5537    0.9939   -6.2270 H   0  0  0  0  0  0
   10.2507   -3.8056   -4.6097 H   0  0  0  0  0  0
   11.5775   -4.8574   -5.0906 H   0  0  0  0  0  0
   11.5175   -4.1926   -3.4531 H   0  0  0  0  0  0
   17.5599   -2.1185   -0.9544 H   0  0  0  0  0  0
   16.4267   -1.1390   -1.8790 H   0  0  0  0  0  0
   16.0291   -2.8201   -1.4674 H   0  0  0  0  0  0
   15.3424   -3.9152   -6.9053 H   0  0  0  0  0  0
   15.7210   -3.0237   -8.3712 H   0  0  0  0  0  0
   16.8892   -4.1328   -7.7065 H   0  0  0  0  0  0
   14.1497    0.0477   -6.0632 H   0  0  0  0  0  0
   15.3262    1.3069   -6.2517 H   0  0  0  0  0  0
   13.9484    1.2112   -7.3421 H   0  0  0  0  0  0
   17.2918    3.3974  -11.4753 H   0  0  0  0  0  0
   17.9083    2.2609  -10.2957 H   0  0  0  0  0  0
   17.1568    1.6796  -11.7896 H   0  0  0  0  0  0
   13.8588   -0.2613  -13.6039 H   0  0  0  0  0  0
   14.8297    1.2088  -13.6145 H   0  0  0  0  0  0
   13.0994    1.3028  -13.8997 H   0  0  0  0  0  0
   11.3806    4.7779  -10.9395 H   0  0  0  0  0  0
   11.5598    4.4069   -9.2285 H   0  0  0  0  0  0
   12.7078    3.7554  -10.3977 H   0  0  0  0  0  0
  1 12  2  0  0  0
  2 17  1  0  0  0
  2 34  1  0  0  0
  3 18  1  0  0  0
  3 35  1  0  0  0
  4 35  2  0  0  0
  5 22  1  0  0  0
  5 41  1  0  0  0
  6 23  1  0  0  0
  6 38  1  0  0  0
  7 28  1  0  0  0
  7 40  1  0  0  0
  8 29  2  0  0  0
  9 32  2  0  0  0
 10 12  1  0  0  0
 10 31  1  0  0  0
 10 42  1  0  0  0
 11 35  1  0  0  0
 11 43  1  0  0  0
 11 44  1  0  0  0
 12 13  1  0  0  0
 13 14  2  0  0  0
 13 33  1  0  0  0
 14 15  1  0  0  0
 14 45  1  0  0  0
 15 16  2  0  0  0
 15 46  1  0  0  0
 16 17  1  0  0  0
 16 47  1  0  0  0
 17 18  1  0  0  0
 17 48  1  0  0  0
 18 19  1  0  0  0
 18 49  1  0  0  0
 19 20  2  0  0  0
 19 36  1  0  0  0
 20 21  1  0  0  0
 20 50  1  0  0  0
 21 22  1  0  0  0
 21 37  1  0  0  0
 21 51  1  0  0  0
 22 23  1  0  0  0
 22 52  1  0  0  0
 23 24  1  0  0  0
 23 53  1  0  0  0
 24 25  1  0  0  0
 24 54  1  0  0  0
 24 55  1  0  0  0
 25 26  1  0  0  0
 25 39  1  0  0  0
 25 56  1  0  0  0
 26 27  1  0  0  0
 26 57  1  0  0  0
 26 58  1  0  0  0
 27 28  2  0  0  0
 27 32  1  0  0  0
 28 29  1  0  0  0
 29 30  1  0  0  0
 30 31  2  0  0  0
 30 59  1  0  0  0
 31 32  1  0  0  0
 33 60  1  0  0  0
 33 61  1  0  0  0
 33 62  1  0  0  0
 34 63  1  0  0  0
 34 64  1  0  0  0
 34 65  1  0  0  0
 36 66  1  0  0  0
 36 67  1  0  0  0
 36 68  1  0  0  0
 37 69  1  0  0  0
 37 70  1  0  0  0
 37 71  1  0  0  0
 38 72  1  0  0  0
 38 73  1  0  0  0
 38 74  1  0  0  0
 39 75  1  0  0  0
 39 76  1  0  0  0
 39 77  1  0  0  0
 40 78  1  0  0  0
 40 79  1  0  0  0
 40 80  1  0  0  0
M  END
> <i_epik_Tot_Q>
0

> <i_epik_Tot_abs_Q>
0

> <i_f3d_flags>
0

> <i_i_glide_confnum>
1

> <i_i_glide_lignum>
6

> <i_i_glide_posenum>
18

> <i_i_glide_rotatable_bonds>
6

> <i_lp_mmshare_version>
65135

> <i_m_Source_File_Index>
1

> <i_m_source_file_index>
1

> <i_m_stars>
0

> <b_lp_Chiralities_Consistent>
1

> <b_m_subgroup_collapsed>
0

> <r_epik_Charging_Adjusted_Penalty>
0.140557

> <r_epik_Ionization_Penalty>
0.1377

> <r_epik_Ionization_Penalty_Charging>
0

> <r_epik_Ionization_Penalty_Neutral>
0.1377

> <r_epik_State_Penalty>
0.1406

> <r_i_docking_score>
-5.89994

> <r_i_glide_ecoul>
-13.7848

> <r_i_glide_eff_state_penalty>
0.1406

> <r_i_glide_einternal>
6.81071

> <r_i_glide_emodel>
-62.032

> <r_i_glide_energy>
-47.6394

> <r_i_glide_erotb>
0.066149

> <r_i_glide_esite>
-0.0856118

> <r_i_glide_evdw>
-33.8547

> <r_i_glide_gscore>
-6.04054

> <r_i_glide_hbond>
-0.870919

> <r_i_glide_ligand_efficiency>
-0.147498

> <r_i_glide_ligand_efficiency_ln>
-1.25828

> <r_i_glide_ligand_efficiency_sa>
-0.504438

> <r_i_glide_lipo>
-1.13818

> <r_i_glide_metal>
0

> <r_i_glide_rewards>
-0.251532

> <r_lp_Energy>
38.7195

> <r_lp_tautomer_probability>
1

> <s_epik_Chemistry_Notes>
This compound has an ester and may undergo hydrolysis at high or low pH.

> <s_epik_cmdline>
J2VwaWtfcHl0aG9uJywgJy1waCcsICc3LjAnLCAnLXRuJywgJzgnLCAnLW1hJywgJzUwMCcsICctaW1hZScsICc8aW5maWxlLm1hZT4nLCAnLW9tYWUnLCAnPG91dGZpbGUubWFlPic=

> <s_epik_input>
W0NIM11PQyg9QzEyKUMoPU8pW0NIXT1DKEMyPU8pW05IXUMoPU8pL0MoW0NIM10pPVtDSF0vW0NIXT1bQ0hdXFtDQEhdKE9bQ0gzXSlbQ0BASF0oT0MoPU8pW05IMl0pL0MoW0NIM10pPVtDSF0vW0NASF0oW0NIM10pW0NAQEhdKFtPSF0pW0NAQEhdKE9bQ0gzXSlbQ0gyXVtDQEhdKFtDSDJdMSlbQ0gzXQ==

> <s_i_glide_gridfile>
glide-grid_P02829_N92L

> <s_lp_Force_Field>
S-OPLS

> <s_lp_Variant>
GDM-6

> <s_m_Source_File>
glide-dock_SP_P02829_N92L_pv.maegz

> <s_m_Source_Path>
D:\project\glide-dock_SP_P02829_N92L

> <s_m_entry_id>
315

> <s_m_entry_name>
Structure93

> <s_m_job_name>
glide-dock_SP_P02829_N92L

> <s_m_source_file>
ligprep_GDM.maegz

> <s_m_subgroup_title>
glide-dock_SP_P02829_N92L_pv

> <s_m_subgroupid>
glide-dock_SP_P02829_N92L_pv

> <s_pdb_PDB_format_version>
3.0

$$$$
