GDM
                    3D
 Schrodinger Suite 2024-1.
 80 81  0  0  1  0            999 V2000
   10.4444   -0.8023   -4.8457 O   0  0  0  0  0  0
   15.7312   -1.5886   -3.4956 O   0  0  0  0  0  0
   18.0076   -3.8467   -5.3036 O   0  0  0  0  0  0
   20.1004   -2.8810   -5.2416 O   0  0  0  0  0  0
   17.1149   -0.4284   -9.1855 O   0  0  0  0  0  0
   15.9559    2.3215  -10.3507 O   0  0  0  0  0  0
   11.2398    2.8573  -10.4480 O   0  0  0  0  0  0
   10.2430    3.1103   -7.8694 O   0  0  0  0  0  0
   12.3622   -1.6024   -9.2385 O   0  0  0  0  0  0
   11.7907   -1.2566   -6.6385 N   0  0  0  0  0  0
   19.7846   -5.1669   -5.4072 N   0  0  0  0  0  0
   11.3172   -1.4750   -5.3976 C   0  0  0  0  0  0
   11.9268   -2.6632   -4.8150 C   0  0  0  0  0  0
   13.2761   -2.7405   -4.7528 C   0  0  0  0  0  0
   14.0041   -3.9146   -4.3101 C   0  0  0  0  0  0
   15.3155   -3.9594   -3.9982 C   0  0  0  0  0  0
   16.3332   -2.8279   -3.8560 C   0  0  1  0  0  0
   17.2619   -2.6438   -5.0845 C   0  0  2  0  0  0
   16.4997   -2.1649   -6.3236 C   0  0  0  0  0  0
   16.2785   -0.8419   -6.4762 C   0  0  0  0  0  0
   15.4113   -0.1183   -7.5017 C   0  0  2  0  0  0
   16.2361    0.5362   -8.6424 C   0  0  2  0  0  0
   15.3728    1.1484   -9.7911 C   0  0  2  0  0  0
   14.8778    0.1745  -10.8962 C   0  0  0  0  0  0
   13.7425    0.7730  -11.7698 C   0  0  2  0  0  0
   12.3075    0.3288  -11.3643 C   0  0  0  0  0  0
   11.8829    0.6384   -9.9189 C   0  0  0  0  0  0
   11.3699    1.8377   -9.5424 C   0  0  0  0  0  0
   10.8282    2.0720   -8.1775 C   0  0  0  0  0  0
   10.9929    0.9843   -7.2004 C   0  0  0  0  0  0
   11.5309   -0.2116   -7.5380 C   0  0  0  0  0  0
   11.9581   -0.4809   -8.9315 C   0  0  0  0  0  0
   11.0054   -3.7662   -4.3182 C   0  0  0  0  0  0
   15.1668   -1.5714   -2.1883 C   0  0  0  0  0  0
   19.3597   -3.8619   -5.3076 C   0  0  0  0  0  0
   16.0310   -3.2297   -7.3077 C   0  0  0  0  0  0
   14.5868    0.9262   -6.7159 C   0  0  0  0  0  0
   17.2728    2.2161  -10.8787 C   0  0  0  0  0  0
   13.9985    0.5843  -13.2842 C   0  0  0  0  0  0
   12.1775    3.9182  -10.2700 C   0  0  0  0  0  0
   17.8282    0.0366   -9.5983 H   0  0  0  0  0  0
   12.4189   -1.9649   -6.9991 H   0  0  0  0  0  0
   19.0885   -5.8840   -5.5600 H   0  0  0  0  0  0
   20.7821   -5.3473   -5.4511 H   0  0  0  0  0  0
   13.8645   -1.9083   -5.1134 H   0  0  0  0  0  0
   13.4824   -4.8606   -4.3003 H   0  0  0  0  0  0
   15.7052   -4.9194   -3.7400 H   0  0  0  0  0  0
   16.9766   -3.1113   -3.0204 H   0  0  0  0  0  0
   17.9515   -1.8421   -4.8200 H   0  0  0  0  0  0
   16.6880   -0.1847   -5.7220 H   0  0  0  0  0  0
   14.7170   -0.8374   -7.9339 H   0  0  0  0  0  0
   16.8409    1.3240   -8.1873 H   0  0  0  0  0  0
   14.4761    1.5520   -9.3343 H   0  0  0  0  0  0
   14.5449   -0.7576  -10.4456 H   0  0  0  0  0  0
   15.7216   -0.1087  -11.5254 H   0  0  0  0  0  0
   13.7785    1.8522  -11.6408 H   0  0  0  0  0  0
   11.6032    0.8525  -12.0163 H   0  0  0  0  0  0
   12.1396   -0.7235  -11.5928 H   0  0  0  0  0  0
   10.7071    1.2081   -6.1842 H   0  0  0  0  0  0
    9.9526   -3.5179   -4.4640 H   0  0  0  0  0  0
   11.1998   -4.6970   -4.8551 H   0  0  0  0  0  0
   11.1633   -3.9419   -3.2526 H   0  0  0  0  0  0
   14.6449   -0.6255   -2.0445 H   0  0  0  0  0  0
   14.4290   -2.3585   -2.0309 H   0  0  0  0  0  0
   15.9402   -1.6721   -1.4231 H   0  0  0  0  0  0
   16.8764   -3.8234   -7.6521 H   0  0  0  0  0  0
   15.3167   -3.9054   -6.8443 H   0  0  0  0  0  0
   15.5653   -2.8074   -8.1955 H   0  0  0  0  0  0
   14.0421    0.4549   -5.8970 H   0  0  0  0  0  0
   15.2349    1.6867   -6.2766 H   0  0  0  0  0  0
   13.8520    1.4427   -7.3279 H   0  0  0  0  0  0
   17.5339    3.1504  -11.3701 H   0  0  0  0  0  0
   18.0126    2.0475  -10.0954 H   0  0  0  0  0  0
   17.3588    1.4246  -11.6220 H   0  0  0  0  0  0
   13.9924   -0.4539  -13.6386 H   0  0  0  0  0  0
   14.9644    1.0071  -13.5574 H   0  0  0  0  0  0
   13.2477    1.1151  -13.8671 H   0  0  0  0  0  0
   11.9533    4.7137  -10.9859 H   0  0  0  0  0  0
   12.1344    4.3544   -9.2695 H   0  0  0  0  0  0
   13.2028    3.5839  -10.4509 H   0  0  0  0  0  0
  1 12  2  0  0  0
  2 17  1  0  0  0
  2 34  1  0  0  0
  3 18  1  0  0  0
  3 35  1  0  0  0
  4 35  2  0  0  0
  5 22  1  0  0  0
  5 41  1  0  0  0
  6 23  1  0  0  0
  6 38  1  0  0  0
  7 28  1  0  0  0
  7 40  1  0  0  0
  8 29  2  0  0  0
  9 32  2  0  0  0
 10 12  1  0  0  0
 10 31  1  0  0  0
 10 42  1  0  0  0
 11 35  1  0  0  0
 11 43  1  0  0  0
 11 44  1  0  0  0
 12 13  1  0  0  0
 13 14  2  0  0  0
 13 33  1  0  0  0
 14 15  1  0  0  0
 14 45  1  0  0  0
 15 16  2  0  0  0
 15 46  1  0  0  0
 16 17  1  0  0  0
 16 47  1  0  0  0
 17 18  1  0  0  0
 17 48  1  0  0  0
 18 19  1  0  0  0
 18 49  1  0  0  0
 19 20  2  0  0  0
 19 36  1  0  0  0
 20 21  1  0  0  0
 20 50  1  0  0  0
 21 22  1  0  0  0
 21 37  1  0  0  0
 21 51  1  0  0  0
 22 23  1  0  0  0
 22 52  1  0  0  0
 23 24  1  0  0  0
 23 53  1  0  0  0
 24 25  1  0  0  0
 24 54  1  0  0  0
 24 55  1  0  0  0
 25 26  1  0  0  0
 25 39  1  0  0  0
 25 56  1  0  0  0
 26 27  1  0  0  0
 26 57  1  0  0  0
 26 58  1  0  0  0
 27 28  2  0  0  0
 27 32  1  0  0  0
 28 29  1  0  0  0
 29 30  1  0  0  0
 30 31  2  0  0  0
 30 59  1  0  0  0
 31 32  1  0  0  0
 33 60  1  0  0  0
 33 61  1  0  0  0
 33 62  1  0  0  0
 34 63  1  0  0  0
 34 64  1  0  0  0
 34 65  1  0  0  0
 36 66  1  0  0  0
 36 67  1  0  0  0
 36 68  1  0  0  0
 37 69  1  0  0  0
 37 70  1  0  0  0
 37 71  1  0  0  0
 38 72  1  0  0  0
 38 73  1  0  0  0
 38 74  1  0  0  0
 39 75  1  0  0  0
 39 76  1  0  0  0
 39 77  1  0  0  0
 40 78  1  0  0  0
 40 79  1  0  0  0
 40 80  1  0  0  0
M  END
> <Tot Q>
0

> <flags>
0

> <Source File Index>
4

> <stars>
0

> <subgroup collapsed>
0

> <Ionization Penalty>
0.1377

> <State Penalty>
0.1406

> <docking score>
-5.44413

> <glide emodel>
-56.9087

> <glide gscore>
-5.58473

> <tautomer probability>
1

> <Source File>
glide-dock_SP_P02829_L93I_pv.maegz

> <Source Path>
C:\Users\yujie\Desktop\res\docking\P02829\glide-dock_SP_P02829_L93I

> <entry id>
1650

> <subgroup title>
glide-dock_SP_P02829_L93I_pv

> <subgroupid>
glide-dock_SP_P02829_L93I_pv

$$$$
