GDM
                    3D
 Schrodinger Suite 2024-1.
 80 81  0  0  1  0            999 V2000
   10.3032   -1.9876   -4.6164 O   0  0  0  0  0  0
   17.5229   -2.2521   -2.7664 O   0  0  0  0  0  0
   18.1579   -3.9407   -5.2215 O   0  0  0  0  0  0
   20.2642   -3.0513   -5.0152 O   0  0  0  0  0  0
   17.0430    1.2262   -9.1449 O   0  0  0  0  0  0
   14.6025    2.6395   -9.0565 O   0  0  0  0  0  0
   10.2168    2.3568   -9.6017 O   0  0  0  0  0  0
    9.4500    2.1880   -6.9500 O   0  0  0  0  0  0
   12.3128   -1.8511   -8.9751 O   0  0  0  0  0  0
   11.8719   -1.8803   -6.2617 N   0  0  0  0  0  0
   19.9032   -5.2962   -5.4138 N   0  0  0  0  0  0
   11.3850   -2.3414   -5.0897 C   0  0  0  0  0  0
   12.2412   -3.3470   -4.4714 C   0  0  0  0  0  0
   13.5580   -3.0845   -4.2941 C   0  0  0  0  0  0
   14.4937   -4.0139   -3.6794 C   0  0  0  0  0  0
   15.8144   -3.8125   -3.5018 C   0  0  0  0  0  0
   16.6307   -2.5672   -3.8304 C   0  0  2  0  0  0
   17.4745   -2.6871   -5.1257 C   0  0  2  0  0  0
   16.6441   -2.4194   -6.3792 C   0  0  0  0  0  0
   16.7869   -1.2617   -7.0546 C   0  0  0  0  0  0
   16.0419   -0.8479   -8.3161 C   0  0  1  0  0  0
   15.9405    0.7038   -8.4276 C   0  0  2  0  0  0
   14.6149    1.2167   -9.0529 C   0  0  2  0  0  0
   14.3347    0.7405  -10.4970 C   0  0  0  0  0  0
   12.9877    1.2160  -11.1027 C   0  0  2  0  0  0
   11.7965    0.2718  -10.8076 C   0  0  0  0  0  0
   11.3251    0.2773   -9.3527 C   0  0  0  0  0  0
   10.5766    1.2809   -8.8353 C   0  0  0  0  0  0
   10.1549    1.2956   -7.4172 C   0  0  0  0  0  0
   10.6361    0.1936   -6.5684 C   0  0  0  0  0  0
   11.3657   -0.8383   -7.0598 C   0  0  0  0  0  0
   11.7163   -0.8844   -8.5034 C   0  0  0  0  0  0
   11.5793   -4.6367   -4.0098 C   0  0  0  0  0  0
   16.8976   -1.7237   -1.6053 C   0  0  0  0  0  0
   19.5058   -3.9999   -5.1899 C   0  0  0  0  0  0
   15.7158   -3.5308   -6.8514 C   0  0  0  0  0  0
   16.7073   -1.5225   -9.5306 C   0  0  0  0  0  0
   14.3056    3.2571   -7.8159 C   0  0  0  0  0  0
   13.1284    1.3932  -12.6232 C   0  0  0  0  0  0
    8.9341    2.2305  -10.2017 C   0  0  0  0  0  0
   16.9477    2.1693   -9.2099 H   0  0  0  0  0  0
   12.6739   -2.3631   -6.6430 H   0  0  0  0  0  0
   19.1961   -5.9824   -5.6391 H   0  0  0  0  0  0
   20.9014   -5.4942   -5.4302 H   0  0  0  0  0  0
   13.9415   -2.1330   -4.6299 H   0  0  0  0  0  0
   14.1199   -4.9748   -3.3600 H   0  0  0  0  0  0
   16.3870   -4.6093   -3.0535 H   0  0  0  0  0  0
   15.9683   -1.7101   -3.9543 H   0  0  0  0  0  0
   18.1993   -1.8723   -5.0844 H   0  0  0  0  0  0
   17.4991   -0.5382   -6.6879 H   0  0  0  0  0  0
   15.0275   -1.2386   -8.2257 H   0  0  0  0  0  0
   16.0047    1.1134   -7.4196 H   0  0  0  0  0  0
   13.8029    0.8755   -8.4159 H   0  0  0  0  0  0
   14.3648   -0.3461  -10.5515 H   0  0  0  0  0  0
   15.1568    1.0955  -11.1193 H   0  0  0  0  0  0
   12.7505    2.2031  -10.7063 H   0  0  0  0  0  0
   10.9481    0.5837  -11.4162 H   0  0  0  0  0  0
   12.0180   -0.7361  -11.1575 H   0  0  0  0  0  0
   10.3997    0.2691   -5.5173 H   0  0  0  0  0  0
   10.5626   -4.7320   -4.3938 H   0  0  0  0  0  0
   12.1336   -5.5065   -4.3605 H   0  0  0  0  0  0
   11.5327   -4.6696   -2.9221 H   0  0  0  0  0  0
   17.6548   -1.5071   -0.8508 H   0  0  0  0  0  0
   16.3778   -0.7907   -1.8276 H   0  0  0  0  0  0
   16.1852   -2.4260   -1.1699 H   0  0  0  0  0  0
   15.7659   -4.4080   -6.2095 H   0  0  0  0  0  0
   14.6816   -3.1908   -6.8804 H   0  0  0  0  0  0
   15.9856   -3.8639   -7.8509 H   0  0  0  0  0  0
   16.4433   -2.5754   -9.6109 H   0  0  0  0  0  0
   16.4551   -1.0487  -10.4789 H   0  0  0  0  0  0
   17.7907   -1.4722   -9.4159 H   0  0  0  0  0  0
   14.2158    4.3334   -7.9624 H   0  0  0  0  0  0
   13.3584    2.8918   -7.4204 H   0  0  0  0  0  0
   15.0883    3.0942   -7.0744 H   0  0  0  0  0  0
   13.3817    0.4522  -13.1120 H   0  0  0  0  0  0
   13.9114    2.1137  -12.8636 H   0  0  0  0  0  0
   12.2042    1.7613  -13.0703 H   0  0  0  0  0  0
    8.7832    3.0433  -10.9120 H   0  0  0  0  0  0
    8.8217    1.2874  -10.7401 H   0  0  0  0  0  0
    8.1435    2.2953   -9.4523 H   0  0  0  0  0  0
  1 12  2  0  0  0
  2 17  1  0  0  0
  2 34  1  0  0  0
  3 18  1  0  0  0
  3 35  1  0  0  0
  4 35  2  0  0  0
  5 22  1  0  0  0
  5 41  1  0  0  0
  6 23  1  0  0  0
  6 38  1  0  0  0
  7 28  1  0  0  0
  7 40  1  0  0  0
  8 29  2  0  0  0
  9 32  2  0  0  0
 10 12  1  0  0  0
 10 31  1  0  0  0
 10 42  1  0  0  0
 11 35  1  0  0  0
 11 43  1  0  0  0
 11 44  1  0  0  0
 12 13  1  0  0  0
 13 14  2  0  0  0
 13 33  1  0  0  0
 14 15  1  0  0  0
 14 45  1  0  0  0
 15 16  2  0  0  0
 15 46  1  0  0  0
 16 17  1  0  0  0
 16 47  1  0  0  0
 17 18  1  0  0  0
 17 48  1  0  0  0
 18 19  1  0  0  0
 18 49  1  0  0  0
 19 20  2  0  0  0
 19 36  1  0  0  0
 20 21  1  0  0  0
 20 50  1  0  0  0
 21 22  1  0  0  0
 21 37  1  0  0  0
 21 51  1  0  0  0
 22 23  1  0  0  0
 22 52  1  0  0  0
 23 24  1  0  0  0
 23 53  1  0  0  0
 24 25  1  0  0  0
 24 54  1  0  0  0
 24 55  1  0  0  0
 25 26  1  0  0  0
 25 39  1  0  0  0
 25 56  1  0  0  0
 26 27  1  0  0  0
 26 57  1  0  0  0
 26 58  1  0  0  0
 27 28  2  0  0  0
 27 32  1  0  0  0
 28 29  1  0  0  0
 29 30  1  0  0  0
 30 31  2  0  0  0
 30 59  1  0  0  0
 31 32  1  0  0  0
 33 60  1  0  0  0
 33 61  1  0  0  0
 33 62  1  0  0  0
 34 63  1  0  0  0
 34 64  1  0  0  0
 34 65  1  0  0  0
 36 66  1  0  0  0
 36 67  1  0  0  0
 36 68  1  0  0  0
 37 69  1  0  0  0
 37 70  1  0  0  0
 37 71  1  0  0  0
 38 72  1  0  0  0
 38 73  1  0  0  0
 38 74  1  0  0  0
 39 75  1  0  0  0
 39 76  1  0  0  0
 39 77  1  0  0  0
 40 78  1  0  0  0
 40 79  1  0  0  0
 40 80  1  0  0  0
M  END
> <i_epik_Tot_Q>
0

> <i_epik_Tot_abs_Q>
0

> <i_f3d_flags>
0

> <i_i_glide_confnum>
9

> <i_i_glide_lignum>
2

> <i_i_glide_posenum>
28

> <i_i_glide_rotatable_bonds>
6

> <i_lp_mmshare_version>
65135

> <i_m_Source_File_Index>
1

> <i_m_source_file_index>
1

> <i_m_stars>
0

> <b_lp_Chiralities_Consistent>
1

> <b_m_subgroup_collapsed>
0

> <r_epik_Charging_Adjusted_Penalty>
0.140557

> <r_epik_Ionization_Penalty>
0.1377

> <r_epik_Ionization_Penalty_Charging>
0

> <r_epik_Ionization_Penalty_Neutral>
0.1377

> <r_epik_State_Penalty>
0.1406

> <r_i_docking_score>
-5.69374

> <r_i_glide_ecoul>
-12.5664

> <r_i_glide_eff_state_penalty>
0.1406

> <r_i_glide_einternal>
0.639812

> <r_i_glide_emodel>
-65.5807

> <r_i_glide_energy>
-47.9029

> <r_i_glide_erotb>
0.066149

> <r_i_glide_esite>
-0.0950973

> <r_i_glide_evdw>
-35.3366

> <r_i_glide_gscore>
-5.83434

> <r_i_glide_hbond>
-0.83765

> <r_i_glide_ligand_efficiency>
-0.142344

> <r_i_glide_ligand_efficiency_ln>
-1.21431

> <r_i_glide_ligand_efficiency_sa>
-0.486808

> <r_i_glide_lipo>
-1.05246

> <r_i_glide_metal>
0

> <r_i_glide_rewards>
-0.263498

> <r_lp_Energy>
46.6187

> <r_lp_tautomer_probability>
1

> <s_epik_Chemistry_Notes>
This compound has an ester and may undergo hydrolysis at high or low pH.

> <s_epik_cmdline>
J2VwaWtfcHl0aG9uJywgJy1waCcsICc3LjAnLCAnLXRuJywgJzgnLCAnLW1hJywgJzUwMCcsICctaW1hZScsICc8aW5maWxlLm1hZT4nLCAnLW9tYWUnLCAnPG91dGZpbGUubWFlPic=

> <s_epik_input>
W0NIM11PQyg9QzEyKUMoPU8pW0NIXT1DKEMyPU8pW05IXUMoPU8pL0MoW0NIM10pPVtDSF0vW0NIXT1bQ0hdXFtDQEhdKE9bQ0gzXSlbQ0BASF0oT0MoPU8pW05IMl0pL0MoW0NIM10pPVtDSF0vW0NASF0oW0NIM10pW0NAQEhdKFtPSF0pW0NAQEhdKE9bQ0gzXSlbQ0gyXVtDQEhdKFtDSDJdMSlbQ0gzXQ==

> <s_i_glide_gridfile>
glide-grid_P02829_L89V_L93I

> <s_lp_Force_Field>
S-OPLS

> <s_lp_Variant>
GDM-2

> <s_m_Source_File>
glide-dock_SP_P02829_L89V_L93I_pv.maegz

> <s_m_Source_Path>
D:\project\glide-dock_SP_P02829_L89V_L93I

> <s_m_entry_id>
299

> <s_m_entry_name>
Structure93

> <s_m_job_name>
glide-dock_SP_P02829_L89V_L93I

> <s_m_source_file>
ligprep_GDM.maegz

> <s_m_subgroup_title>
glide-dock_SP_P02829_L89V_L93I_pv

> <s_m_subgroupid>
glide-dock_SP_P02829_L89V_L93I_pv

> <s_pdb_PDB_format_version>
3.0

$$$$
