GDM
                    3D
 Schrodinger Suite 2024-1.
 80 81  0  0  1  0            999 V2000
   10.9907   -0.9297   -2.3597 O   0  0  0  0  0  0
   18.2205   -2.4555   -2.6206 O   0  0  0  0  0  0
   18.0063   -3.8599   -5.2261 O   0  0  0  0  0  0
   20.1528   -3.1131   -4.9348 O   0  0  0  0  0  0
   15.5053   -0.9931   -8.8177 O   0  0  0  0  0  0
   13.9242    1.5175   -9.8106 O   0  0  0  0  0  0
    9.0748    1.5028   -8.3109 O   0  0  0  0  0  0
    9.0549    2.1873   -5.6346 O   0  0  0  0  0  0
   11.4625   -2.3960   -7.0179 O   0  0  0  0  0  0
   11.6723   -1.6413   -4.4260 N   0  0  0  0  0  0
   19.6902   -5.2546   -5.6141 N   0  0  0  0  0  0
   11.6899   -1.6427   -3.0792 C   0  0  0  0  0  0
   12.5978   -2.6651   -2.5846 C   0  0  0  0  0  0
   13.8959   -2.6261   -2.9639 C   0  0  0  0  0  0
   14.8417   -3.6868   -2.6724 C   0  0  0  0  0  0
   16.1660   -3.6743   -2.9114 C   0  0  0  0  0  0
   17.0285   -2.5221   -3.3916 C   0  0  2  0  0  0
   17.4025   -2.6044   -4.8963 C   0  0  2  0  0  0
   16.1875   -2.2928   -5.7728 C   0  0  0  0  0  0
   15.8353   -1.0054   -5.9768 C   0  0  0  0  0  0
   14.5838   -0.4598   -6.6549 C   0  0  2  0  0  0
   14.8693    0.0482   -8.0942 C   0  0  2  0  0  0
   13.5922    0.5101   -8.8598 C   0  0  2  0  0  0
   12.8628   -0.6162   -9.6265 C   0  0  0  0  0  0
   11.4214   -0.2551  -10.0612 C   0  0  2  0  0  0
   10.3326   -0.9350   -9.1972 C   0  0  0  0  0  0
   10.2836   -0.4561   -7.7489 C   0  0  0  0  0  0
    9.6580    0.6881   -7.3778 C   0  0  0  0  0  0
    9.6171    1.1461   -5.9686 C   0  0  0  0  0  0
   10.3169    0.3144   -4.9789 C   0  0  0  0  0  0
   10.9433   -0.8387   -5.3159 C   0  0  0  0  0  0
   10.9386   -1.3204   -6.7245 C   0  0  0  0  0  0
   12.0089   -3.7599   -1.7114 C   0  0  0  0  0  0
   18.0261   -2.0544   -1.2707 C   0  0  0  0  0  0
   19.3489   -3.9891   -5.2235 C   0  0  0  0  0  0
   15.4279   -3.4877   -6.3453 C   0  0  0  0  0  0
   13.9984    0.6369   -5.7375 C   0  0  0  0  0  0
   14.0286    2.8308   -9.2753 C   0  0  0  0  0  0
   11.2001   -0.5922  -11.5441 C   0  0  0  0  0  0
    7.6804    1.2789   -8.4738 C   0  0  0  0  0  0
   16.2985   -1.2314   -8.3590 H   0  0  0  0  0  0
   12.2222   -2.3577   -4.8810 H   0  0  0  0  0  0
   18.9588   -5.8877   -5.9137 H   0  0  0  0  0  0
   20.6777   -5.4901   -5.6552 H   0  0  0  0  0  0
   14.2385   -1.8118   -3.5838 H   0  0  0  0  0  0
   14.4402   -4.6202   -2.3095 H   0  0  0  0  0  0
   16.7196   -4.5754   -2.6978 H   0  0  0  0  0  0
   16.4940   -1.5854   -3.2365 H   0  0  0  0  0  0
   18.1072   -1.7992   -5.0991 H   0  0  0  0  0  0
   16.4655   -0.2404   -5.5446 H   0  0  0  0  0  0
   13.8468   -1.2560   -6.7038 H   0  0  0  0  0  0
   15.5808    0.8690   -8.0238 H   0  0  0  0  0  0
   12.8737    0.9405   -8.1655 H   0  0  0  0  0  0
   12.8488   -1.5265   -9.0288 H   0  0  0  0  0  0
   13.4684   -0.8536  -10.5004 H   0  0  0  0  0  0
   11.2940    0.8263   -9.9761 H   0  0  0  0  0  0
    9.3603   -0.7249   -9.6392 H   0  0  0  0  0  0
   10.4221   -2.0189   -9.2515 H   0  0  0  0  0  0
   10.3309    0.6963   -3.9724 H   0  0  0  0  0  0
   10.9991   -3.5104   -1.3707 H   0  0  0  0  0  0
   11.9511   -4.7022   -2.2644 H   0  0  0  0  0  0
   12.6257   -3.9191   -0.8249 H   0  0  0  0  0  0
   18.9903   -1.9868   -0.7692 H   0  0  0  0  0  0
   17.5580   -1.0733   -1.2236 H   0  0  0  0  0  0
   17.4097   -2.7605   -0.7169 H   0  0  0  0  0  0
   15.0070   -4.0973   -5.5451 H   0  0  0  0  0  0
   14.6258   -3.2027   -7.0263 H   0  0  0  0  0  0
   16.0996   -4.1230   -6.9278 H   0  0  0  0  0  0
   13.8734    0.2666   -4.7173 H   0  0  0  0  0  0
   14.6544    1.5068   -5.6895 H   0  0  0  0  0  0
   13.0203    0.9839   -6.0555 H   0  0  0  0  0  0
   14.3055    3.5222  -10.0726 H   0  0  0  0  0  0
   13.0777    3.1672   -8.8587 H   0  0  0  0  0  0
   14.7905    2.9014   -8.4975 H   0  0  0  0  0  0
   11.2906   -1.6592  -11.7285 H   0  0  0  0  0  0
   11.9240   -0.0758  -12.1735 H   0  0  0  0  0  0
   10.2085   -0.2797  -11.8732 H   0  0  0  0  0  0
    7.3139    1.8730   -9.3105 H   0  0  0  0  0  0
    7.4596    0.2303   -8.6825 H   0  0  0  0  0  0
    7.1275    1.5825   -7.5839 H   0  0  0  0  0  0
  1 12  2  0  0  0
  2 17  1  0  0  0
  2 34  1  0  0  0
  3 18  1  0  0  0
  3 35  1  0  0  0
  4 35  2  0  0  0
  5 22  1  0  0  0
  5 41  1  0  0  0
  6 23  1  0  0  0
  6 38  1  0  0  0
  7 28  1  0  0  0
  7 40  1  0  0  0
  8 29  2  0  0  0
  9 32  2  0  0  0
 10 12  1  0  0  0
 10 31  1  0  0  0
 10 42  1  0  0  0
 11 35  1  0  0  0
 11 43  1  0  0  0
 11 44  1  0  0  0
 12 13  1  0  0  0
 13 14  2  0  0  0
 13 33  1  0  0  0
 14 15  1  0  0  0
 14 45  1  0  0  0
 15 16  2  0  0  0
 15 46  1  0  0  0
 16 17  1  0  0  0
 16 47  1  0  0  0
 17 18  1  0  0  0
 17 48  1  0  0  0
 18 19  1  0  0  0
 18 49  1  0  0  0
 19 20  2  0  0  0
 19 36  1  0  0  0
 20 21  1  0  0  0
 20 50  1  0  0  0
 21 22  1  0  0  0
 21 37  1  0  0  0
 21 51  1  0  0  0
 22 23  1  0  0  0
 22 52  1  0  0  0
 23 24  1  0  0  0
 23 53  1  0  0  0
 24 25  1  0  0  0
 24 54  1  0  0  0
 24 55  1  0  0  0
 25 26  1  0  0  0
 25 39  1  0  0  0
 25 56  1  0  0  0
 26 27  1  0  0  0
 26 57  1  0  0  0
 26 58  1  0  0  0
 27 28  2  0  0  0
 27 32  1  0  0  0
 28 29  1  0  0  0
 29 30  1  0  0  0
 30 31  2  0  0  0
 30 59  1  0  0  0
 31 32  1  0  0  0
 33 60  1  0  0  0
 33 61  1  0  0  0
 33 62  1  0  0  0
 34 63  1  0  0  0
 34 64  1  0  0  0
 34 65  1  0  0  0
 36 66  1  0  0  0
 36 67  1  0  0  0
 36 68  1  0  0  0
 37 69  1  0  0  0
 37 70  1  0  0  0
 37 71  1  0  0  0
 38 72  1  0  0  0
 38 73  1  0  0  0
 38 74  1  0  0  0
 39 75  1  0  0  0
 39 76  1  0  0  0
 39 77  1  0  0  0
 40 78  1  0  0  0
 40 79  1  0  0  0
 40 80  1  0  0  0
M  END
> <Tot Q>
0

> <flags>
0

> <Source File Index>
2

> <stars>
0

> <subgroup collapsed>
0

> <Ionization Penalty>
0.1377

> <State Penalty>
0.1406

> <docking score>
-5.43838

> <glide emodel>
-59.8584

> <glide gscore>
-5.57898

> <tautomer probability>
1

> <Source File>
glide-dock_SP_P02829_K98N_pv.maegz

> <Source Path>
C:\Users\yujie\Desktop\res\docking\P02829\glide-dock_SP_P02829_K98N

> <entry id>
1664

> <subgroup title>
glide-dock_SP_P02829_K98N_pv

> <subgroupid>
glide-dock_SP_P02829_K98N_pv-imp

$$$$
