GDM
                    3D
 Schrodinger Suite 2024-1.
 80 81  0  0  1  0            999 V2000
   10.3045   -1.8784   -4.6261 O   0  0  0  0  0  0
   17.6262   -2.3799   -2.9838 O   0  0  0  0  0  0
   18.0210   -3.7661   -5.6275 O   0  0  0  0  0  0
   20.1236   -3.0598   -5.0263 O   0  0  0  0  0  0
   16.1795   -0.2403   -9.4093 O   0  0  0  0  0  0
   14.4632    2.5722   -9.7525 O   0  0  0  0  0  0
    9.8733    2.3469   -9.6836 O   0  0  0  0  0  0
    9.4029    2.3183   -6.9610 O   0  0  0  0  0  0
   11.9082   -1.8880   -9.1055 O   0  0  0  0  0  0
   11.7541   -1.8159   -6.3704 N   0  0  0  0  0  0
   19.6292   -5.2756   -5.4261 N   0  0  0  0  0  0
   11.3476   -2.2563   -5.1619 C   0  0  0  0  0  0
   12.2250   -3.2714   -4.5876 C   0  0  0  0  0  0
   13.5557   -3.0373   -4.4866 C   0  0  0  0  0  0
   14.5072   -4.0057   -3.9602 C   0  0  0  0  0  0
   15.8316   -3.8186   -3.7871 C   0  0  0  0  0  0
   16.6515   -2.5488   -4.0068 C   0  0  2  0  0  0
   17.3824   -2.5123   -5.3756 C   0  0  2  0  0  0
   16.3972   -2.1015   -6.4703 C   0  0  0  0  0  0
   16.0619   -0.7971   -6.5661 C   0  0  0  0  0  0
   14.9174   -0.1576   -7.3412 C   0  0  2  0  0  0
   15.3895    0.6116   -8.6022 C   0  0  2  0  0  0
   14.2070    1.2133   -9.4302 C   0  0  2  0  0  0
   13.8467    0.4846  -10.7472 C   0  0  0  0  0  0
   12.5170    0.9697  -11.3876 C   0  0  2  0  0  0
   11.2689    0.1591  -10.9577 C   0  0  0  0  0  0
   10.9338    0.2400   -9.4664 C   0  0  0  0  0  0
   10.2741    1.2879   -8.9165 C   0  0  0  0  0  0
   10.0092    1.3732   -7.4618 C   0  0  0  0  0  0
   10.5342    0.2806   -6.6238 C   0  0  0  0  0  0
   11.1814   -0.7903   -7.1474 C   0  0  0  0  0  0
   11.3797   -0.8945   -8.6147 C   0  0  0  0  0  0
   11.5740   -4.5635   -4.1136 C   0  0  0  0  0  0
   17.0973   -1.9595   -1.7359 C   0  0  0  0  0  0
   19.3273   -3.9415   -5.3360 C   0  0  0  0  0  0
   15.8007   -3.2146   -7.3251 C   0  0  0  0  0  0
   14.1804    0.7592   -6.3400 C   0  0  0  0  0  0
   14.2005    3.4893   -8.6933 C   0  0  0  0  0  0
   12.6186    0.9731  -12.9222 C   0  0  0  0  0  0
    8.5366    2.2402  -10.1480 C   0  0  0  0  0  0
   16.6685    0.3035  -10.0089 H   0  0  0  0  0  0
   12.5175   -2.3166   -6.8050 H   0  0  0  0  0  0
   18.9163   -5.9049   -5.7782 H   0  0  0  0  0  0
   20.5966   -5.5501   -5.2863 H   0  0  0  0  0  0
   13.9403   -2.0913   -4.8328 H   0  0  0  0  0  0
   14.1428   -4.9954   -3.7267 H   0  0  0  0  0  0
   16.4045   -4.6574   -3.4230 H   0  0  0  0  0  0
   15.9873   -1.6860   -3.9569 H   0  0  0  0  0  0
   18.1243   -1.7129   -5.3392 H   0  0  0  0  0  0
   16.5819   -0.1077   -5.9153 H   0  0  0  0  0  0
   14.2265   -0.9367   -7.6517 H   0  0  0  0  0  0
   16.0512    1.4119   -8.2740 H   0  0  0  0  0  0
   13.3053    1.1925   -8.8312 H   0  0  0  0  0  0
   13.8009   -0.5922  -10.5877 H   0  0  0  0  0  0
   14.6689    0.6425  -11.4452 H   0  0  0  0  0  0
   12.3541    2.0085  -11.0973 H   0  0  0  0  0  0
   10.4075    0.5373  -11.5059 H   0  0  0  0  0  0
   11.3662   -0.8754  -11.2860 H   0  0  0  0  0  0
   10.4132    0.3975   -5.5574 H   0  0  0  0  0  0
   10.4877   -4.5076   -4.1258 H   0  0  0  0  0  0
   11.8682   -5.3933   -4.7574 H   0  0  0  0  0  0
   11.8768   -4.7959   -3.0947 H   0  0  0  0  0  0
   17.9073   -1.8663   -1.0121 H   0  0  0  0  0  0
   16.6149   -0.9834   -1.8245 H   0  0  0  0  0  0
   16.3759   -2.6769   -1.3425 H   0  0  0  0  0  0
   15.2357   -3.9218   -6.7150 H   0  0  0  0  0  0
   15.1387   -2.8435   -8.1086 H   0  0  0  0  0  0
   16.5972   -3.7690   -7.8248 H   0  0  0  0  0  0
   13.8979    0.2108   -5.4411 H   0  0  0  0  0  0
   14.8188    1.5862   -6.0261 H   0  0  0  0  0  0
   13.2647    1.1961   -6.7303 H   0  0  0  0  0  0
   14.3043    4.5139   -9.0543 H   0  0  0  0  0  0
   13.1797    3.3871   -8.3206 H   0  0  0  0  0  0
   14.8930    3.3559   -7.8621 H   0  0  0  0  0  0
   12.7541   -0.0321  -13.3272 H   0  0  0  0  0  0
   13.4547    1.5863  -13.2589 H   0  0  0  0  0  0
   11.7147    1.3879  -13.3723 H   0  0  0  0  0  0
    8.3437    3.0290  -10.8753 H   0  0  0  0  0  0
    8.3437    1.2840  -10.6366 H   0  0  0  0  0  0
    7.8238    2.3631   -9.3305 H   0  0  0  0  0  0
  1 12  2  0  0  0
  2 17  1  0  0  0
  2 34  1  0  0  0
  3 18  1  0  0  0
  3 35  1  0  0  0
  4 35  2  0  0  0
  5 22  1  0  0  0
  5 41  1  0  0  0
  6 23  1  0  0  0
  6 38  1  0  0  0
  7 28  1  0  0  0
  7 40  1  0  0  0
  8 29  2  0  0  0
  9 32  2  0  0  0
 10 12  1  0  0  0
 10 31  1  0  0  0
 10 42  1  0  0  0
 11 35  1  0  0  0
 11 43  1  0  0  0
 11 44  1  0  0  0
 12 13  1  0  0  0
 13 14  2  0  0  0
 13 33  1  0  0  0
 14 15  1  0  0  0
 14 45  1  0  0  0
 15 16  2  0  0  0
 15 46  1  0  0  0
 16 17  1  0  0  0
 16 47  1  0  0  0
 17 18  1  0  0  0
 17 48  1  0  0  0
 18 19  1  0  0  0
 18 49  1  0  0  0
 19 20  2  0  0  0
 19 36  1  0  0  0
 20 21  1  0  0  0
 20 50  1  0  0  0
 21 22  1  0  0  0
 21 37  1  0  0  0
 21 51  1  0  0  0
 22 23  1  0  0  0
 22 52  1  0  0  0
 23 24  1  0  0  0
 23 53  1  0  0  0
 24 25  1  0  0  0
 24 54  1  0  0  0
 24 55  1  0  0  0
 25 26  1  0  0  0
 25 39  1  0  0  0
 25 56  1  0  0  0
 26 27  1  0  0  0
 26 57  1  0  0  0
 26 58  1  0  0  0
 27 28  2  0  0  0
 27 32  1  0  0  0
 28 29  1  0  0  0
 29 30  1  0  0  0
 30 31  2  0  0  0
 30 59  1  0  0  0
 31 32  1  0  0  0
 33 60  1  0  0  0
 33 61  1  0  0  0
 33 62  1  0  0  0
 34 63  1  0  0  0
 34 64  1  0  0  0
 34 65  1  0  0  0
 36 66  1  0  0  0
 36 67  1  0  0  0
 36 68  1  0  0  0
 37 69  1  0  0  0
 37 70  1  0  0  0
 37 71  1  0  0  0
 38 72  1  0  0  0
 38 73  1  0  0  0
 38 74  1  0  0  0
 39 75  1  0  0  0
 39 76  1  0  0  0
 39 77  1  0  0  0
 40 78  1  0  0  0
 40 79  1  0  0  0
 40 80  1  0  0  0
M  END
> <Tot Q>
0

> <flags>
0

> <Source File Index>
2

> <stars>
0

> <subgroup collapsed>
0

> <Ionization Penalty>
0.1377

> <State Penalty>
0.1406

> <docking score>
-5.66492

> <glide emodel>
-62.0401

> <glide gscore>
-5.80552

> <tautomer probability>
1

> <Source File>
glide-dock_SP_P02829_WT_pv.maegz

> <Source Path>
C:\Users\yujie\Desktop\res\docking\P02829\glide-dock_SP_P02829_WT

> <entry id>
1624

> <subgroup title>
glide-dock_SP_P02829_WT_pv

> <subgroupid>
glide-dock_SP_P02829_WT_pv

$$$$
