lig_hif2a_237
                    3D
 Schrodinger Suite 2024-1.
 38 40  0  0  1  0            999 V2000
   18.4184    2.0817   -9.0020 N   0  0  0  0  0  0
   18.9056    1.1797   -9.5357 C   0  0  0  0  0  0
   19.5074    0.0346  -10.2015 C   0  0  0  0  0  0
   18.6901   -1.0246  -10.5949 C   0  0  0  0  0  0
   19.2233   -2.1456  -11.2030 C   0  0  0  0  0  0
   18.3990   -3.1162  -11.6295 F   0  0  0  0  0  0
   20.5850   -2.2287  -11.4260 C   0  0  0  0  0  0
   21.4172   -1.1743  -11.0768 C   0  0  0  0  0  0
   22.7208   -1.2910  -11.4716 O   0  0  0  0  0  0
   23.7570   -0.8253  -10.7118 C   0  0  0  0  0  0
   23.9152   -1.1149   -9.3593 C   0  0  0  0  0  0
   25.0750   -0.7262   -8.6994 C   0  0  0  0  0  0
   26.0728   -0.0141   -9.3730 C   0  0  0  0  0  0
   27.4518    0.6263   -8.4103 S   0  0  0  0  0  0
   27.3056    2.0831   -8.3784 O   0  0  0  0  0  0
   27.5248   -0.1295   -7.1544 O   0  0  0  0  0  0
   28.9702    0.2249   -9.4105 C   0  0  0  0  0  0
   30.0198    0.4829   -8.6628 F   0  0  0  0  0  0
   28.9130   -1.0630   -9.7546 F   0  0  0  0  0  0
   25.9422    0.2052  -10.7588 C   0  0  0  0  0  0
   24.7733   -0.1943  -11.4122 C   0  0  0  0  0  0
   24.7814    0.1613  -12.8772 C   0  0  0  0  0  0
   26.2109    0.5952  -13.1250 C   0  0  0  0  0  0
   26.8179   -0.3827  -13.7954 F   0  0  0  0  0  0
   26.2512    1.6852  -13.8744 F   0  0  0  0  0  0
   26.8980    0.8166  -11.7695 C   0  0  1  0  0  0
   27.2188    2.1582  -11.4545 O   0  0  0  0  0  0
   20.8814   -0.0310  -10.4635 C   0  0  0  0  0  0
   17.6270   -1.0124  -10.4659 H   0  0  0  0  0  0
   21.0000   -3.1147  -11.8745 H   0  0  0  0  0  0
   23.1707   -1.6810   -8.8309 H   0  0  0  0  0  0
   25.1931   -1.0140   -7.6683 H   0  0  0  0  0  0
   29.0323    0.8971  -10.2557 H   0  0  0  0  0  0
   24.5236   -0.7089  -13.4747 H   0  0  0  0  0  0
   24.0844    0.9633  -13.1252 H   0  0  0  0  0  0
   27.8134    0.2305  -11.8113 H   0  0  0  0  0  0
   27.9346    2.4827  -12.0148 H   0  0  0  0  0  0
   21.5315    0.7940  -10.2133 H   0  0  0  0  0  0
  1  2  3  0  0  0
  2  3  1  0  0  0
  3 28  1  0  0  0
  3  4  2  0  0  0
  4  5  1  0  0  0
  4 29  1  0  0  0
  5  6  1  0  0  0
  5  7  2  0  0  0
  7  8  1  0  0  0
  7 30  1  0  0  0
  8  9  1  0  0  0
  8 28  2  0  0  0
  9 10  1  0  0  0
 10 21  1  0  0  0
 10 11  2  0  0  0
 11 12  1  0  0  0
 11 31  1  0  0  0
 12 13  2  0  0  0
 12 32  1  0  0  0
 13 14  1  0  0  0
 13 20  1  0  0  0
 14 15  2  0  0  0
 14 16  2  0  0  0
 14 17  1  0  0  0
 17 18  1  0  0  0
 17 19  1  0  0  0
 17 33  1  0  0  0
 20 26  1  0  0  0
 20 21  2  0  0  0
 21 22  1  0  0  0
 22 23  1  0  0  0
 22 34  1  0  0  0
 22 35  1  0  0  0
 23 24  1  0  0  0
 23 25  1  0  0  0
 23 26  1  0  0  0
 26 27  1  0  0  0
 26 36  1  0  0  0
 27 37  1  0  0  0
 28 38  1  0  0  0
M  END
> <i_epik_Tot_Q>
0

> <i_epik_Tot_abs_Q>
0

> <i_i_glide_confnum>
22

> <i_i_glide_lignum>
35

> <i_i_glide_posenum>
254

> <i_i_glide_rotatable_bonds>
5

> <i_lp_mmshare_version>
51139

> <i_m_Source_File_Index>
47

> <i_f3d_flags>
0

> <b_lp_Chiralities_Consistent>
1

> <b_m_subgroup_collapsed>
0

> <r_epik_Charging_Adjusted_Penalty>
0.000802737

> <r_epik_Ionization_Penalty>
0.0012

> <r_epik_Ionization_Penalty_Charging>
0

> <r_epik_Ionization_Penalty_Neutral>
0.0012

> <r_epik_State_Penalty>
0.0008

> <r_i_docking_score>
-10.6483

> <r_i_glide_ecoul>
-5.5944

> <r_i_glide_eff_state_penalty>
0.000802737

> <r_i_glide_einternal>
7.24652

> <r_i_glide_emodel>
-56.1686

> <r_i_glide_energy>
-49.8234

> <r_i_glide_erotb>
0.33752

> <r_i_glide_esite>
0

> <r_i_glide_evdw>
-44.229

> <r_i_glide_gscore>
-10.6491

> <r_i_glide_hbond>
-0.110165

> <r_i_glide_ligand_efficiency>
-0.380295

> <r_i_glide_ligand_efficiency_ln>
-2.45793

> <r_i_glide_ligand_efficiency_sa>
-1.1548

> <r_i_glide_lipo>
-4.57574

> <r_i_glide_metal>
0

> <r_i_glide_rewards>
-3.25007

> <r_lp_Energy>
32.4226

> <r_lp_tautomer_probability>
1

> <s_epik_cmdline>
J2VwaWtfcHl0aG9uJywgJy1waHQnLCAnMi4wJywgJy1waCcsICc3LjQnLCAnLXRuJywgJzgnLCAnLW1hJywgJzIwMCcsICctaW1hZScsICc8aW5maWxlLm1hZT4nLCAnLW9tYWUnLCAnPG91dGZpbGUubWFlPic=

> <s_epik_input>
TiNDYzFbY0hdYyhGKVtjSF1jKFtjSF0xKU9jKFtjSF1bY0hdYzJTKD1PKSg9TylbQ0hdKEYpRiljKGMyMylbQ0gyXUMoRikoRilbQ0BIXTNbT0hd

> <s_i_glide_gridfile>
hif2a-001-gridgen

> <s_lp_Force_Field>
OPLS3e

> <s_lp_Variant>
lig_hif2a_237-1

> <s_m_Source_File>
hif2ahif2a_dock_SP_confgen_100_lib.maegz

> <s_m_Source_Path>
D:\project\FEP\hif2a

> <s_m_entry_id>
499

> <s_m_entry_name>
hif2ahif2a_dock_SP_confgen_100_lib.47

> <s_m_subgroup_title>
hif2ahif2a_dock_SP_confgen_100_lib

> <s_m_subgroupid>
hif2ahif2a_dock_SP_confgen_100_lib

$$$$
