lig_hif2a_61
                    3D
 Schrodinger Suite 2024-1.
 37 39  0  0  1  0            999 V2000
   28.5053   -1.1189   -9.4741 O   0  0  0  0  0  0
   27.6344   -0.1437   -8.8141 S   0  0  0  0  0  0
   27.3121   -0.3081   -7.3953 O   0  0  0  0  0  0
   28.3890    1.5697   -9.0085 C   0  0  0  0  0  0
   27.4364    2.4802   -8.8019 F   0  0  0  0  0  0
   26.0748   -0.1395   -9.7076 C   0  0  0  0  0  0
   24.9615   -0.7056   -9.0756 C   0  0  0  0  0  0
   23.7337   -0.7707   -9.7271 C   0  0  0  0  0  0
   23.6094   -0.2964  -11.0387 C   0  0  0  0  0  0
   22.4459   -0.3188  -11.7733 O   0  0  0  0  0  0
   21.2536   -0.6338  -11.1810 C   0  0  0  0  0  0
   20.7309   -1.9142  -11.3461 C   0  0  0  0  0  0
   19.5117   -2.2433  -10.7662 C   0  0  0  0  0  0
   18.9919   -3.4735  -10.9452 F   0  0  0  0  0  0
   18.8187   -1.2968  -10.0188 C   0  0  0  0  0  0
   19.3205   -0.0042   -9.8769 C   0  0  0  0  0  0
   18.4188    1.2046   -9.0410 Cl  0  0  0  0  0  0
   20.5509    0.3198  -10.4391 C   0  0  0  0  0  0
   24.7180    0.2503  -11.6818 C   0  0  0  0  0  0
   25.9468    0.3473  -11.0205 C   0  0  0  0  0  0
   26.9701    0.9844  -11.9443 C   0  0  1  0  0  0
   28.0187    0.1110  -12.2744 O   0  0  0  0  0  0
   26.1770    1.4138  -13.1747 C   0  0  0  0  0  0
   24.8384    0.6956  -13.1212 C   0  0  0  0  0  0
   28.8222    1.6769   -9.9972 H   0  0  0  0  0  0
   29.1681    1.6756   -8.2622 H   0  0  0  0  0  0
   25.0430   -1.1155   -8.0786 H   0  0  0  0  0  0
   22.8915   -1.2165   -9.2188 H   0  0  0  0  0  0
   21.2759   -2.6562  -11.9079 H   0  0  0  0  0  0
   17.8938   -1.5802   -9.5524 H   0  0  0  0  0  0
   20.9526    1.3081  -10.2891 H   0  0  0  0  0  0
   27.3726    1.8956  -11.5058 H   0  0  0  0  0  0
   28.7379    0.6258  -12.6520 H   0  0  0  0  0  0
   26.7017    1.2517  -14.1181 H   0  0  0  0  0  0
   26.0081    2.4834  -13.0961 H   0  0  0  0  0  0
   24.8593   -0.1723  -13.7795 H   0  0  0  0  0  0
   24.0204    1.3307  -13.4547 H   0  0  0  0  0  0
  1  2  2  0  0  0
  2  3  2  0  0  0
  2  4  1  0  0  0
  2  6  1  0  0  0
  4  5  1  0  0  0
  4 25  1  0  0  0
  4 26  1  0  0  0
  6 20  1  0  0  0
  6  7  2  0  0  0
  7  8  1  0  0  0
  7 27  1  0  0  0
  8  9  2  0  0  0
  8 28  1  0  0  0
  9 10  1  0  0  0
  9 19  1  0  0  0
 10 11  1  0  0  0
 11 18  1  0  0  0
 11 12  2  0  0  0
 12 13  1  0  0  0
 12 29  1  0  0  0
 13 14  1  0  0  0
 13 15  2  0  0  0
 15 16  1  0  0  0
 15 30  1  0  0  0
 16 17  1  0  0  0
 16 18  2  0  0  0
 18 31  1  0  0  0
 19 24  1  0  0  0
 19 20  2  0  0  0
 20 21  1  0  0  0
 21 22  1  0  0  0
 21 23  1  0  0  0
 21 32  1  0  0  0
 22 33  1  0  0  0
 23 24  1  0  0  0
 23 34  1  0  0  0
 23 35  1  0  0  0
 24 36  1  0  0  0
 24 37  1  0  0  0
M  END
> <i_epik_Tot_Q>
0

> <i_epik_Tot_abs_Q>
0

> <i_i_glide_confnum>
4

> <i_i_glide_lignum>
8

> <i_i_glide_posenum>
390

> <i_i_glide_rotatable_bonds>
5

> <i_lp_mmshare_version>
51139

> <i_m_Source_File_Index>
94

> <i_f3d_flags>
0

> <b_lp_Chiralities_Consistent>
1

> <b_m_subgroup_collapsed>
0

> <r_epik_Charging_Adjusted_Penalty>
0

> <r_epik_Ionization_Penalty>
0

> <r_epik_Ionization_Penalty_Charging>
0

> <r_epik_Ionization_Penalty_Neutral>
0

> <r_epik_State_Penalty>
0

> <r_i_docking_score>
-10.366

> <r_i_glide_ecoul>
-5.34918

> <r_i_glide_eff_state_penalty>
0

> <r_i_glide_einternal>
5.32939

> <r_i_glide_emodel>
-82.0893

> <r_i_glide_energy>
-54.5872

> <r_i_glide_erotb>
0.41305

> <r_i_glide_esite>
0

> <r_i_glide_evdw>
-49.238

> <r_i_glide_gscore>
-10.366

> <r_i_glide_hbond>
0

> <r_i_glide_ligand_efficiency>
-0.431918

> <r_i_glide_ligand_efficiency_ln>
-2.48107

> <r_i_glide_ligand_efficiency_sa>
-1.24587

> <r_i_glide_lipo>
-4.96419

> <r_i_glide_metal>
0

> <r_i_glide_rewards>
-2.55063

> <r_lp_Energy>
26.5999

> <r_lp_tautomer_probability>
1

> <s_epik_cmdline>
J2VwaWtfcHl0aG9uJywgJy1waHQnLCAnMi4wJywgJy1waCcsICc3LjQnLCAnLXRuJywgJzgnLCAnLW1hJywgJzIwMCcsICctaW1hZScsICc8aW5maWxlLm1hZT4nLCAnLW9tYWUnLCAnPG91dGZpbGUubWFlPic=

> <s_epik_input>
W0NIMl0xW0NIMl1bQ0BIXShbT0hdKWMoYzEyKWMoUyg9TykoPU8pW0NIMl1GKVtjSF1bY0hdYzJPYzNbY0hdYyhGKVtjSF1jKENsKVtjSF0z

> <s_i_glide_gridfile>
hif2a-001-gridgen

> <s_lp_Force_Field>
OPLS3e

> <s_lp_Variant>
lig_hif2a_61-1

> <s_m_Source_File>
hif2ahif2a_dock_SP_confgen_100_lib.maegz

> <s_m_Source_Path>
D:\project\FEP\hif2a

> <s_m_entry_id>
546

> <s_m_entry_name>
hif2ahif2a_dock_SP_confgen_100_lib.94

> <s_m_subgroup_title>
hif2ahif2a_dock_SP_confgen_100_lib

> <s_m_subgroupid>
hif2ahif2a_dock_SP_confgen_100_lib

$$$$
