lig_hif2a_84
                    3D
 Schrodinger Suite 2024-1.
 33 35  0  0  1  0            999 V2000
   24.8188    1.0298  -13.8746 O   0  0  0  0  0  0
   25.5144    0.8522  -12.8850 C   0  0  0  0  0  0
   26.8028    1.2485  -12.8648 O   0  0  0  0  0  0
   27.4149    0.9695  -11.6262 C   0  0  0  0  0  0
   26.3447    0.3064  -10.8096 C   0  0  0  0  0  0
   26.3494   -0.1577   -9.4925 C   0  0  0  0  0  0
   27.7529    0.1438   -8.4366 S   0  0  0  0  0  0
   27.6189   -0.6931   -7.2425 O   0  0  0  0  0  0
   28.9555    0.0398   -9.2614 O   0  0  0  0  0  0
   27.5101    1.9576   -7.9685 C   0  0  0  0  0  0
   26.5520    2.5070   -8.7146 F   0  0  0  0  0  0
   27.2188    2.0258   -6.6746 F   0  0  0  0  0  0
   25.1995   -0.7463   -8.9653 C   0  0  0  0  0  0
   24.0432   -0.8300   -9.7372 C   0  0  0  0  0  0
   24.0150   -0.3168  -11.0448 C   0  0  0  0  0  0
   22.8774   -0.3293  -11.8281 O   0  0  0  0  0  0
   21.6356   -0.5161  -11.2572 C   0  0  0  0  0  0
   21.0482    0.4753  -10.4667 C   0  0  0  0  0  0
   19.7797    0.3007   -9.9199 C   0  0  0  0  0  0
   19.2173    1.2830   -9.1802 F   0  0  0  0  0  0
   19.0941   -0.8878  -10.1430 C   0  0  0  0  0  0
   19.6761   -1.8869  -10.9187 C   0  0  0  0  0  0
   18.8188   -3.3427  -11.2035 Cl  0  0  0  0  0  0
   20.9411   -1.7044  -11.4746 C   0  0  0  0  0  0
   25.1938    0.2362  -11.5732 C   0  0  0  0  0  0
   28.2799    0.3237  -11.7808 H   0  0  0  0  0  0
   27.7715    1.8961  -11.1742 H   0  0  0  0  0  0
   28.4188    2.4831   -8.1738 H   0  0  0  0  0  0
   25.1853   -1.1169   -7.9501 H   0  0  0  0  0  0
   23.1652   -1.2858   -9.3033 H   0  0  0  0  0  0
   21.5776    1.3841  -10.2746 H   0  0  0  0  0  0
   18.1167   -1.0355   -9.7119 H   0  0  0  0  0  0
   21.3840   -2.4868  -12.0699 H   0  0  0  0  0  0
  1  2  2  0  0  0
  2 25  1  0  0  0
  2  3  1  0  0  0
  3  4  1  0  0  0
  4  5  1  0  0  0
  4 26  1  0  0  0
  4 27  1  0  0  0
  5 25  2  0  0  0
  5  6  1  0  0  0
  6  7  1  0  0  0
  6 13  2  0  0  0
  7  8  2  0  0  0
  7  9  2  0  0  0
  7 10  1  0  0  0
 10 11  1  0  0  0
 10 12  1  0  0  0
 10 28  1  0  0  0
 13 14  1  0  0  0
 13 29  1  0  0  0
 14 15  2  0  0  0
 14 30  1  0  0  0
 15 16  1  0  0  0
 15 25  1  0  0  0
 16 17  1  0  0  0
 17 24  1  0  0  0
 17 18  2  0  0  0
 18 19  1  0  0  0
 18 31  1  0  0  0
 19 20  1  0  0  0
 19 21  2  0  0  0
 21 22  1  0  0  0
 21 32  1  0  0  0
 22 23  1  0  0  0
 22 24  2  0  0  0
 24 33  1  0  0  0
M  END
> <Tot Q>
0

> <Source File Index>
550

> <i_f3d_flags>
0

> <subgroup collapsed>
0

> <Ionization Penalty>
0

> <State Penalty>
0

> <docking score>
-9.25723

> <glide emodel>
-76.0316

> <glide gscore>
-9.25723

> <tautomer probability>
1

> <Source File>
hif2ahif2a_dock_SP_confgen_100_lib.maegz

> <Source Path>
C:\Users\yujie\Desktop\FEPs

> <entry id>
4643

> <subgroup title>
hif2ahif2a_dock_SP_confgen_100_lib

> <subgroupid>
hif2ahif2a_dock_SP_confgen_100_lib

$$$$
