lig_hif2a_215
                    3D
 Schrodinger Suite 2024-1.
 38 40  0  0  1  0            999 V2000
   18.5458    2.0831   -9.0729 N   0  0  0  0  0  0
   19.0535    1.1835   -9.5876 C   0  0  0  0  0  0
   19.6702    0.0374  -10.2294 C   0  0  0  0  0  0
   18.8474   -1.0248  -10.5917 C   0  0  0  0  0  0
   19.3735   -2.1472  -11.2000 C   0  0  0  0  0  0
   18.5398   -3.1169  -11.6075 F   0  0  0  0  0  0
   20.7358   -2.2332  -11.4328 C   0  0  0  0  0  0
   21.5796   -1.1832  -11.0947 C   0  0  0  0  0  0
   22.8911   -1.3216  -11.4746 O   0  0  0  0  0  0
   23.9263   -0.8644  -10.7058 C   0  0  0  0  0  0
   24.0179   -1.1101   -9.3411 C   0  0  0  0  0  0
   25.1588   -0.7169   -8.6509 C   0  0  0  0  0  0
   26.1607    0.0353   -9.2775 C   0  0  0  0  0  0
   27.4754    0.7399   -8.2642 S   0  0  0  0  0  0
   27.3458    2.1948   -8.3394 O   0  0  0  0  0  0
   27.4433    0.0831   -6.9573 O   0  0  0  0  0  0
   29.0796    0.2553   -9.0669 C   0  0  0  0  0  0
   29.0411   -1.4764   -9.4745 Cl  0  0  0  0  0  0
   26.0901    0.2304  -10.6675 C   0  0  0  0  0  0
   24.9756   -0.2428  -11.3748 C   0  0  0  0  0  0
   25.1799   -0.1008  -12.8656 C   0  0  0  0  0  0
   26.2719    0.9356  -12.9328 C   0  0  0  0  0  0
   27.0069    0.8541  -14.0404 F   0  0  0  0  0  0
   25.6190    2.0831  -12.9337 F   0  0  0  0  0  0
   27.0894    0.8394  -11.6439 C   0  0  1  0  0  0
   27.6113    2.0831  -11.2120 O   0  0  0  0  0  0
   21.0445   -0.0301  -10.4972 C   0  0  0  0  0  0
   17.7875   -1.0039  -10.4364 H   0  0  0  0  0  0
   21.1514   -3.1169  -11.8745 H   0  0  0  0  0  0
   23.2256   -1.6433   -8.8370 H   0  0  0  0  0  0
   25.2496   -1.0187   -7.6190 H   0  0  0  0  0  0
   29.2188    0.8581   -9.9500 H   0  0  0  0  0  0
   29.8852    0.4831   -8.3734 H   0  0  0  0  0  0
   25.5076   -1.0435  -13.3052 H   0  0  0  0  0  0
   24.2797    0.1996  -13.4043 H   0  0  0  0  0  0
   27.9050    0.1328  -11.8035 H   0  0  0  0  0  0
   28.2831    2.4075  -11.8331 H   0  0  0  0  0  0
   21.6904    0.8025  -10.2676 H   0  0  0  0  0  0
  1  2  3  0  0  0
  2  3  1  0  0  0
  3 27  1  0  0  0
  3  4  2  0  0  0
  4  5  1  0  0  0
  4 28  1  0  0  0
  5  6  1  0  0  0
  5  7  2  0  0  0
  7  8  1  0  0  0
  7 29  1  0  0  0
  8  9  1  0  0  0
  8 27  2  0  0  0
  9 10  1  0  0  0
 10 20  1  0  0  0
 10 11  2  0  0  0
 11 12  1  0  0  0
 11 30  1  0  0  0
 12 13  2  0  0  0
 12 31  1  0  0  0
 13 14  1  0  0  0
 13 19  1  0  0  0
 14 15  2  0  0  0
 14 16  2  0  0  0
 14 17  1  0  0  0
 17 18  1  0  0  0
 17 32  1  0  0  0
 17 33  1  0  0  0
 19 25  1  0  0  0
 19 20  2  0  0  0
 20 21  1  0  0  0
 21 22  1  0  0  0
 21 34  1  0  0  0
 21 35  1  0  0  0
 22 23  1  0  0  0
 22 24  1  0  0  0
 22 25  1  0  0  0
 25 26  1  0  0  0
 25 36  1  0  0  0
 26 37  1  0  0  0
 27 38  1  0  0  0
M  END
> <i_epik_Tot_Q>
0

> <i_epik_Tot_abs_Q>
0

> <i_i_glide_confnum>
18

> <i_i_glide_lignum>
19

> <i_i_glide_posenum>
45

> <i_i_glide_rotatable_bonds>
5

> <i_lp_mmshare_version>
51139

> <i_m_Source_File_Index>
15

> <i_f3d_flags>
0

> <b_lp_Chiralities_Consistent>
1

> <b_m_subgroup_collapsed>
0

> <r_epik_Charging_Adjusted_Penalty>
0.000802737

> <r_epik_Ionization_Penalty>
0.0012

> <r_epik_Ionization_Penalty_Charging>
0

> <r_epik_Ionization_Penalty_Neutral>
0.0012

> <r_epik_State_Penalty>
0.0008

> <r_i_docking_score>
-11.0823

> <r_i_glide_ecoul>
-6.97498

> <r_i_glide_eff_state_penalty>
0.000802737

> <r_i_glide_einternal>
12.2389

> <r_i_glide_emodel>
-63.3807

> <r_i_glide_energy>
-51.42

> <r_i_glide_erotb>
0.339766

> <r_i_glide_esite>
0

> <r_i_glide_evdw>
-44.4451

> <r_i_glide_gscore>
-11.0831

> <r_i_glide_hbond>
-0.221442

> <r_i_glide_ligand_efficiency>
-0.410454

> <r_i_glide_ligand_efficiency_ln>
-2.57977

> <r_i_glide_ligand_efficiency_sa>
-1.23136

> <r_i_glide_lipo>
-4.682

> <r_i_glide_metal>
0

> <r_i_glide_rewards>
-3.25089

> <r_lp_Energy>
26.0053

> <r_lp_tautomer_probability>
1

> <s_epik_cmdline>
J2VwaWtfcHl0aG9uJywgJy1waHQnLCAnMi4wJywgJy1waCcsICc3LjQnLCAnLXRuJywgJzgnLCAnLW1hJywgJzIwMCcsICctaW1hZScsICc8aW5maWxlLm1hZT4nLCAnLW9tYWUnLCAnPG91dGZpbGUubWFlPic=

> <s_epik_input>
TiNDYzFbY0hdYyhGKVtjSF1jKFtjSF0xKU9jKFtjSF1bY0hdYzJTKD1PKSg9TylbQ0gyXUNsKWMoYzIzKVtDSDJdQyhGKShGKVtDQEhdM1tPSF0=

> <s_i_glide_gridfile>
hif2a-001-gridgen

> <s_lp_Force_Field>
OPLS3e

> <s_lp_Variant>
lig_hif2a_215-1

> <s_m_Source_File>
hif2ahif2a_dock_SP_confgen_100_lib.maegz

> <s_m_Source_Path>
D:\project\FEP\hif2a

> <s_m_entry_id>
467

> <s_m_entry_name>
hif2ahif2a_dock_SP_confgen_100_lib.15

> <s_m_subgroup_title>
hif2ahif2a_dock_SP_confgen_100_lib

> <s_m_subgroupid>
hif2ahif2a_dock_SP_confgen_100_lib

$$$$
