lig_hif2a_155
                    3D
 Schrodinger Suite 2024-1.
 38 40  0  0  1  0            999 V2000
   18.2217    2.0831   -8.6746 N   0  0  0  0  0  0
   18.7875    1.2530   -9.2471 C   0  0  0  0  0  0
   19.5076    0.2101   -9.9597 C   0  0  0  0  0  0
   18.9628   -1.0620  -10.1425 C   0  0  0  0  0  0
   19.6514   -2.0278  -10.8715 C   0  0  0  0  0  0
   19.0947   -3.2389  -11.0741 F   0  0  0  0  0  0
   20.9079   -1.7404  -11.3946 C   0  0  0  0  0  0
   21.4729   -0.4833  -11.1871 C   0  0  0  0  0  0
   22.7147   -0.1971  -11.6879 O   0  0  0  0  0  0
   23.8313   -0.3207  -10.8910 C   0  0  0  0  0  0
   23.8158   -0.8142   -9.5801 C   0  0  0  0  0  0
   25.0045   -0.9611   -8.8748 C   0  0  0  0  0  0
   26.2246   -0.6291   -9.4629 C   0  0  0  0  0  0
   27.7203   -0.9556   -8.5231 S   0  0  0  0  0  0
   27.4234   -2.0481   -7.5893 O   0  0  0  0  0  0
   28.8188   -1.1258   -9.4745 O   0  0  0  0  0  0
   28.0188    0.6366   -7.5365 C   0  0  0  0  0  0
   27.4380    1.6633   -8.1558 F   0  0  0  0  0  0
   27.5055    0.4831   -6.3161 F   0  0  0  0  0  0
   26.2393   -0.0715  -10.7540 C   0  0  0  0  0  0
   25.0397    0.0831  -11.4590 C   0  0  0  0  0  0
   25.2935    0.6138  -12.8535 C   0  0  0  0  0  0
   26.7322    1.1148  -12.7960 C   0  0  0  0  0  0
   27.3999    0.4139  -11.6068 C   0  0  1  0  0  0
   28.2563    1.2831  -10.8987 O   0  0  0  0  0  0
   20.7740    0.4831  -10.4640 C   0  0  0  0  0  0
   18.0188   -1.3291   -9.7116 H   0  0  0  0  0  0
   21.4499   -2.4993  -11.9360 H   0  0  0  0  0  0
   22.8921   -1.1193   -9.1116 H   0  0  0  0  0  0
   24.9774   -1.3633   -7.8746 H   0  0  0  0  0  0
   29.0921    0.8028   -7.4746 H   0  0  0  0  0  0
   25.1978   -0.1860  -13.5893 H   0  0  0  0  0  0
   24.6055    1.4091  -13.1436 H   0  0  0  0  0  0
   27.2661    0.9479  -13.7324 H   0  0  0  0  0  0
   26.7131    2.1956  -12.6387 H   0  0  0  0  0  0
   27.9638   -0.4493  -11.9624 H   0  0  0  0  0  0
   28.7975    1.7898  -11.5222 H   0  0  0  0  0  0
   21.2189    1.4451  -10.2746 H   0  0  0  0  0  0
  1  2  3  0  0  0
  2  3  1  0  0  0
  3 26  1  0  0  0
  3  4  2  0  0  0
  4  5  1  0  0  0
  4 27  1  0  0  0
  5  6  1  0  0  0
  5  7  2  0  0  0
  7  8  1  0  0  0
  7 28  1  0  0  0
  8  9  1  0  0  0
  8 26  2  0  0  0
  9 10  1  0  0  0
 10 21  1  0  0  0
 10 11  2  0  0  0
 11 12  1  0  0  0
 11 29  1  0  0  0
 12 13  2  0  0  0
 12 30  1  0  0  0
 13 14  1  0  0  0
 13 20  1  0  0  0
 14 15  2  0  0  0
 14 16  2  0  0  0
 14 17  1  0  0  0
 17 18  1  0  0  0
 17 19  1  0  0  0
 17 31  1  0  0  0
 20 24  1  0  0  0
 20 21  2  0  0  0
 21 22  1  0  0  0
 22 23  1  0  0  0
 22 32  1  0  0  0
 22 33  1  0  0  0
 23 24  1  0  0  0
 23 34  1  0  0  0
 23 35  1  0  0  0
 24 25  1  0  0  0
 24 36  1  0  0  0
 25 37  1  0  0  0
 26 38  1  0  0  0
M  END
> <i_epik_Tot_Q>
0

> <i_epik_Tot_abs_Q>
0

> <i_i_glide_confnum>
1

> <i_i_glide_lignum>
34

> <i_i_glide_posenum>
311

> <i_i_glide_rotatable_bonds>
5

> <i_lp_mmshare_version>
51139

> <i_m_Source_File_Index>
8

> <i_f3d_flags>
0

> <b_lp_Chiralities_Consistent>
1

> <b_m_subgroup_collapsed>
0

> <r_epik_Charging_Adjusted_Penalty>
0

> <r_epik_Ionization_Penalty>
0

> <r_epik_Ionization_Penalty_Charging>
0

> <r_epik_Ionization_Penalty_Neutral>
0

> <r_epik_State_Penalty>
0

> <r_i_docking_score>
-11.2088

> <r_i_glide_ecoul>
-6.60756

> <r_i_glide_eff_state_penalty>
0

> <r_i_glide_einternal>
7.14493

> <r_i_glide_emodel>
-90.4423

> <r_i_glide_energy>
-58.0851

> <r_i_glide_erotb>
0.396684

> <r_i_glide_esite>
0

> <r_i_glide_evdw>
-51.4776

> <r_i_glide_gscore>
-11.2088

> <r_i_glide_hbond>
0

> <r_i_glide_ligand_efficiency>
-0.431106

> <r_i_glide_ligand_efficiency_ln>
-2.63234

> <r_i_glide_ligand_efficiency_sa>
-1.27715

> <r_i_glide_lipo>
-4.71977

> <r_i_glide_metal>
0

> <r_i_glide_rewards>
-3.32067

> <r_lp_Energy>
32.2741

> <r_lp_tautomer_probability>
1

> <s_epik_cmdline>
J2VwaWtfcHl0aG9uJywgJy1waHQnLCAnMi4wJywgJy1waCcsICc3LjQnLCAnLXRuJywgJzgnLCAnLW1hJywgJzIwMCcsICctaW1hZScsICc8aW5maWxlLm1hZT4nLCAnLW9tYWUnLCAnPG91dGZpbGUubWFlPic=

> <s_epik_input>
TiNDYzFbY0hdYyhGKVtjSF1jKFtjSF0xKU9jKFtjSF1bY0hdYzJTKD1PKSg9TylbQ0hdKEYpRiljKGMyMylbQ0gyXVtDSDJdW0NASF0zW09IXQ==

> <s_i_glide_gridfile>
hif2a-001-gridgen

> <s_lp_Force_Field>
OPLS3e

> <s_lp_Variant>
lig_hif2a_155-1

> <s_m_Source_File>
hif2ahif2a_dock_SP_confgen_100_lib.maegz

> <s_m_Source_Path>
D:\project\FEP\hif2a

> <s_m_entry_id>
460

> <s_m_entry_name>
hif2ahif2a_dock_SP_confgen_100_lib.8

> <s_m_subgroup_title>
hif2ahif2a_dock_SP_confgen_100_lib

> <s_m_subgroupid>
hif2ahif2a_dock_SP_confgen_100_lib

$$$$
