lig_hif2a_163
                    3D
 Schrodinger Suite 2024-1.
 38 40  0  0  1  0            999 V2000
   18.1058    2.0556   -8.6325 N   0  0  0  0  0  0
   18.6250    1.2303   -9.2487 C   0  0  0  0  0  0
   19.2967    0.2083  -10.0217 C   0  0  0  0  0  0
   20.5114    0.5537  -10.6194 C   0  0  0  0  0  0
   21.2055   -0.3782  -11.4066 C   0  0  0  0  0  0
   20.6798   -1.6698  -11.5998 C   0  0  0  0  0  0
   19.4719   -2.0295  -10.9762 C   0  0  0  0  0  0
   18.9603   -3.2686  -11.1517 F   0  0  0  0  0  0
   18.7870   -1.0967  -10.1756 C   0  0  0  0  0  0
   22.4234   -0.0348  -11.9194 O   0  0  0  0  0  0
   23.5216   -0.1617  -11.1068 C   0  0  0  0  0  0
   24.7814    0.2144  -11.6046 C   0  0  0  0  0  0
   25.0749    0.8272  -12.9413 C   0  0  0  0  0  0
   26.6027    0.6652  -13.0843 C   0  0  0  0  0  0
   27.1818    1.6642  -13.7480 F   0  0  0  0  0  0
   26.8170   -0.4469  -13.7882 F   0  0  0  0  0  0
   25.9484   -0.0042  -10.8822 C   0  0  0  0  0  0
   27.1657    0.4501  -11.6511 C   0  0  2  0  0  0
   27.6325    1.6819  -11.1326 O   0  0  0  0  0  0
   25.8819   -0.6049   -9.6113 C   0  0  0  0  0  0
   27.3318   -1.1301   -8.7363 S   0  0  0  0  0  0
   27.9851    0.3639   -7.9305 C   0  0  0  0  0  0
   26.8970   -2.0674   -7.6979 O   0  0  0  0  0  0
   28.2934   -1.5988   -9.7316 O   0  0  0  0  0  0
   24.6271   -0.8712   -9.0340 C   0  0  0  0  0  0
   23.4547   -0.6714   -9.7843 C   0  0  0  0  0  0
   20.9232    1.5312  -10.4242 H   0  0  0  0  0  0
   21.2167   -2.3913  -12.1987 H   0  0  0  0  0  0
   17.8821   -1.4015   -9.6802 H   0  0  0  0  0  0
   24.7959    1.8775  -12.8923 H   0  0  0  0  0  0
   24.5167    0.3513  -13.7389 H   0  0  0  0  0  0
   27.9713   -0.2804  -11.6749 H   0  0  0  0  0  0
   28.3455    2.0039  -11.6846 H   0  0  0  0  0  0
   28.9132    0.0906   -7.4419 H   0  0  0  0  0  0
   28.1788    1.1254   -8.6824 H   0  0  0  0  0  0
   27.2659    0.7180   -7.1993 H   0  0  0  0  0  0
   24.5688   -1.2957   -8.0448 H   0  0  0  0  0  0
   22.5121   -0.9438   -9.3382 H   0  0  0  0  0  0
  1  2  3  0  0  0
  2  3  1  0  0  0
  3  4  2  0  0  0
  3  9  1  0  0  0
  4  5  1  0  0  0
  4 27  1  0  0  0
  5  6  2  0  0  0
  5 10  1  0  0  0
  6  7  1  0  0  0
  6 28  1  0  0  0
  7  8  1  0  0  0
  7  9  2  0  0  0
  9 29  1  0  0  0
 10 11  1  0  0  0
 11 12  2  0  0  0
 11 26  1  0  0  0
 12 13  1  0  0  0
 12 17  1  0  0  0
 13 14  1  0  0  0
 13 30  1  0  0  0
 13 31  1  0  0  0
 14 15  1  0  0  0
 14 16  1  0  0  0
 14 18  1  0  0  0
 17 18  1  0  0  0
 17 20  2  0  0  0
 18 19  1  0  0  0
 18 32  1  0  0  0
 19 33  1  0  0  0
 20 21  1  0  0  0
 20 25  1  0  0  0
 21 22  1  0  0  0
 21 23  2  0  0  0
 21 24  2  0  0  0
 22 34  1  0  0  0
 22 35  1  0  0  0
 22 36  1  0  0  0
 25 26  2  0  0  0
 25 37  1  0  0  0
 26 38  1  0  0  0
M  END
> <Source File Index>
1

> <stars>
0

> <PDB EXPDTA PH>
5.4

> <PDB EXPDTA TEMPERATURE>
77.2

> <PDB RESOLUTION>
1.85

> <Source File>
hif2a_minimized_new.pdb

> <Source Path>
C:\Users\yujie\Desktop\FEPs

> <entry id>
5640

> <PDB EXPDTA>
X-RAY DIFFRACTION

> <PDB ID>
5TBM

> <PDB TITLE>
CRYSTAL STRUCTURE OF PT2385 BOUND TO HIF2A-B*:ARNT-B* COMPLEX

$$$$
