47D
                    3D
 Schrodinger Suite 2024-1.
 32 34  0  0  1  0            999 V2000
   16.8445   -4.5752   11.8226 C   0  0  0  0  0  0
   17.8701   -4.9080   12.6979 N   0  0  0  0  0  0
   17.5542   -6.0161   13.3782 C   0  0  0  0  0  0
   18.5889   -6.8055   14.1410 C   0  0  0  0  0  0
   17.9925   -7.5624   15.2295 N   0  0  0  0  0  0
   17.7026   -6.8455   16.4045 C   0  0  0  0  0  0
   18.1272   -5.7061   16.5783 O   0  0  0  0  0  0
   16.8568   -7.4641   17.3452 N   0  0  0  0  0  0
   16.5217   -6.7006   18.5199 C   0  0  0  0  0  0
   15.3270   -5.7596   18.3316 C   0  0  0  0  0  0
   14.9263   -5.4982   17.1732 O   0  5  0  0  0  0
   14.8154   -5.3079   19.3782 O   0  0  0  0  0  0
   16.3964   -8.7474   17.1282 C   0  0  0  0  0  0
   16.7187   -9.4621   16.0273 C   0  0  0  0  0  0
   17.5537   -8.8853   14.9785 C   0  0  0  0  0  0
   17.8344   -9.4810   13.9384 O   0  0  0  0  0  0
   15.8635   -6.5080   13.2428 S   0  0  0  0  0  0
   15.6593   -5.3514   11.9489 C   0  0  0  0  0  0
   14.5388   -5.1358   11.1316 C   0  0  0  0  0  0
   14.5824   -4.1080   10.1782 C   0  0  0  0  0  0
   15.7295   -3.3077   10.0566 C   0  0  0  0  0  0
   15.7265   -1.9727    8.9782 Cl  0  0  0  0  0  0
   16.8642   -3.5593   10.8465 C   0  0  0  0  0  0
   19.3594   -6.1535   14.5564 H   0  0  0  0  0  0
   19.1059   -7.4972   13.4751 H   0  0  0  0  0  0
   17.4139   -6.1728   18.8622 H   0  0  0  0  0  0
   16.2782   -7.4351   19.2883 H   0  0  0  0  0  0
   15.7582   -9.2008   17.8730 H   0  0  0  0  0  0
   16.3368  -10.4650   15.9076 H   0  0  0  0  0  0
   13.6473   -5.7346   11.2515 H   0  0  0  0  0  0
   13.7264   -3.9218    9.5549 H   0  0  0  0  0  0
   17.7381   -2.9345   10.7495 H   0  0  0  0  0  0
  1  2  1  0  0  0
  1 18  1  0  0  0
  1 23  2  0  0  0
  2  3  2  0  0  0
  3  4  1  0  0  0
  3 17  1  0  0  0
  4  5  1  0  0  0
  4 24  1  0  0  0
  4 25  1  0  0  0
  5  6  1  0  0  0
  5 15  1  0  0  0
  6  7  2  0  0  0
  6  8  1  0  0  0
  8  9  1  0  0  0
  8 13  1  0  0  0
  9 10  1  0  0  0
  9 26  1  0  0  0
  9 27  1  0  0  0
 10 11  1  0  0  0
 10 12  2  0  0  0
 13 14  2  0  0  0
 13 28  1  0  0  0
 14 15  1  0  0  0
 14 29  1  0  0  0
 15 16  2  0  0  0
 17 18  1  0  0  0
 18 19  2  0  0  0
 19 20  1  0  0  0
 19 30  1  0  0  0
 20 21  2  0  0  0
 20 31  1  0  0  0
 21 22  1  0  0  0
 21 23  1  0  0  0
 23 32  1  0  0  0
M  CHG  1  11  -1
M  END
> <PDB EXPDTA PH>
5

> <PDB EXPDTA TEMPERATURE>
100

> <Tot Q>
-1

> <entry id>
1141

> <flags>
0

> <stars>
0

> <subgroup collapsed>
0

> <tautomer probability>
1

> <Ionization Penalty>
0.0013

> <PDB RESOLUTION>
1.42

> <State Penalty>
0.0013

> <docking score>
-11.3589

> <glide emodel>
-92.6202

> <glide gscore>
-11.3602

> <entry id>
1171

> <PDB EXPDTA>
X-RAY DIFFRACTION

> <PDB ID>
2PDG

> <PDB TITLE>
HUMAN ALDOSE REDUCTASE WITH URACIL-TYPE INHIBITOR AT 1.42A.

> <subgroup title>
glide-dock_SP_P15121_MT_L300P_pv

> <subgroupid>
glide-dock_SP_P15121_MT_L300P_pv

$$$$
