compound7_noF_6
                    3D
 Schrodinger Suite 2024-1.
 63 67  0  0  1  0            999 V2000
   36.6629   -1.9809    9.3117 O   0  0  0  0  0  0
   37.0161   -2.8065    8.4621 C   0  0  0  0  0  0
   36.2172   -3.4559    7.6103 N   0  0  0  0  0  0
   34.8812   -3.8565    7.7988 C   0  0  0  0  0  0
   34.3162   -3.9016    9.1013 C   0  0  0  0  0  0
   33.0514   -4.4675    9.3196 C   0  0  0  0  0  0
   32.3558   -5.0234    8.2390 C   0  0  0  0  0  0
   32.9188   -4.9788    6.9518 C   0  0  0  0  0  0
   34.1668   -4.3753    6.6855 C   0  0  0  0  0  0
   34.6552   -4.3484    5.3480 N   0  0  0  0  0  0
   35.2468   -3.1852    4.6744 C   0  0  0  0  0  0
   34.7810   -2.9920    3.1809 C   0  0  0  0  0  0
   34.6520   -4.2830    2.3175 C   0  0  0  0  0  0
   34.0049   -4.1022    0.9352 N   0  5  0  0  0  0
   35.0499   -3.7531   -0.2236 S   0  0  0  0  0  0
   35.4252   -5.3535   -0.3828 N   0  0  0  0  0  0
   34.3224   -3.5633   -1.4766 O   0  0  0  0  0  0
   36.2710   -3.0058    0.0725 O   0  0  0  0  0  0
   34.0203   -5.4002    3.1692 C   0  0  0  0  0  0
   34.7026   -5.5816    4.5550 C   0  0  0  0  0  0
   38.4675   -3.1489    8.2906 C   0  0  0  0  0  0
   39.3549   -2.8008    9.2748 C   0  0  0  0  0  0
   40.6201   -3.2445    9.1593 N   0  0  0  0  0  0
   41.0487   -4.0079    8.0475 C   0  0  0  0  0  0
   40.0538   -4.2975    7.0638 C   0  0  0  0  0  0
   40.3375   -5.0759    5.8450 C   0  0  0  0  0  0
   40.3389   -6.4936    5.8662 C   0  0  0  0  0  0
   40.1221   -7.1113    7.0793 O   0  0  0  0  0  0
   40.0617   -8.5329    7.1234 C   0  0  0  0  0  0
   40.5682   -7.2074    4.6624 C   0  0  0  0  0  0
   40.8035   -6.5224    3.4562 C   0  0  0  0  0  0
   40.8246   -5.1178    3.4411 C   0  0  0  0  0  0
   40.5965   -4.4027    4.6302 C   0  0  0  0  0  0
   40.6721   -3.0499    4.6071 F   0  0  0  0  0  0
   38.8349   -3.8612    7.1727 N   0  0  0  0  0  0
   42.3543   -4.2726    8.1558 N   0  0  0  0  0  0
   42.7442   -3.7769    9.3976 C   0  0  0  0  0  0
   41.7218   -3.0892    9.9802 C   0  0  0  0  0  0
   36.7050   -3.9668    6.8861 H   0  0  0  0  0  0
   34.8570   -3.5569    9.9689 H   0  0  0  0  0  0
   31.4144   -5.5301    8.4010 H   0  0  0  0  0  0
   32.3775   -5.4621    6.1631 H   0  0  0  0  0  0
   35.0003   -2.2880    5.2401 H   0  0  0  0  0  0
   36.3316   -3.2936    4.7051 H   0  0  0  0  0  0
   33.8466   -2.4636    3.1896 H   0  0  0  0  0  0
   35.4732   -2.3049    2.6941 H   0  0  0  0  0  0
   35.6705   -4.6329    2.1621 H   0  0  0  0  0  0
   34.0417   -6.3503    2.6343 H   0  0  0  0  0  0
   32.9840   -5.1749    3.3560 H   0  0  0  0  0  0
   35.7462   -5.8731    4.4250 H   0  0  0  0  0  0
   34.2566   -6.4112    5.0941 H   0  0  0  0  0  0
   39.0723   -2.2317   10.1522 H   0  0  0  0  0  0
   39.8881   -8.8467    8.1519 H   0  0  0  0  0  0
   39.2419   -8.9224    6.5172 H   0  0  0  0  0  0
   40.9985   -8.9875    6.8001 H   0  0  0  0  0  0
   40.5584   -8.2879    4.6353 H   0  0  0  0  0  0
   40.9651   -7.0806    2.5441 H   0  0  0  0  0  0
   41.0056   -4.5904    2.5154 H   0  0  0  0  0  0
   43.7530   -3.9179    9.7655 H   0  0  0  0  0  0
   41.6356   -2.5507   10.9113 H   0  0  0  0  0  0
   36.4435   -5.4142   -0.2905 H   0  0  0  0  0  0
   32.6464   -4.5307   10.3196 H   0  0  0  0  0  0
   35.0856   -5.8024    0.4828 H   0  0  0  0  0  0
  1  2  2  0  0  0
  2  3  1  0  0  0
  2 21  1  0  0  0
  3  4  1  0  0  0
  3 39  1  0  0  0
  4  9  1  0  0  0
  4  5  2  0  0  0
  5  6  1  0  0  0
  5 40  1  0  0  0
  6  7  2  0  0  0
  6 62  1  0  0  0
  7  8  1  0  0  0
  7 41  1  0  0  0
  8  9  2  0  0  0
  8 42  1  0  0  0
  9 10  1  0  0  0
 10 20  1  0  0  0
 10 11  1  0  0  0
 11 12  1  0  0  0
 11 43  1  0  0  0
 11 44  1  0  0  0
 12 13  1  0  0  0
 12 45  1  0  0  0
 12 46  1  0  0  0
 13 14  1  0  0  0
 13 19  1  0  0  0
 13 47  1  0  0  0
 14 15  1  0  0  0
 15 16  1  0  0  0
 15 17  2  0  0  0
 15 18  2  0  0  0
 16 61  1  0  0  0
 16 63  1  0  0  0
 19 20  1  0  0  0
 19 48  1  0  0  0
 19 49  1  0  0  0
 20 50  1  0  0  0
 20 51  1  0  0  0
 21 35  1  0  0  0
 21 22  2  0  0  0
 22 23  1  0  0  0
 22 52  1  0  0  0
 23 38  1  0  0  0
 23 24  1  0  0  0
 24 25  1  0  0  0
 24 36  2  0  0  0
 25 26  1  0  0  0
 25 35  2  0  0  0
 26 33  1  0  0  0
 26 27  2  0  0  0
 27 28  1  0  0  0
 27 30  1  0  0  0
 28 29  1  0  0  0
 29 53  1  0  0  0
 29 54  1  0  0  0
 29 55  1  0  0  0
 30 31  2  0  0  0
 30 56  1  0  0  0
 31 32  1  0  0  0
 31 57  1  0  0  0
 32 33  2  0  0  0
 32 58  1  0  0  0
 33 34  1  0  0  0
 36 37  1  0  0  0
 37 38  2  0  0  0
 37 59  1  0  0  0
 38 60  1  0  0  0
M  CHG  1  14  -1
M  END
> <flags>
0

> <Source File Index>
1

> <PDB EXPDTA TEMPERATURE>
100

> <Tot Q>
-1

> <entry id>
17

> <flags>
0

> <subgroup collapsed>
0

> <subgroup collapsed>
0

> <tautomer probability>
1

> <Ionization Penalty>
1.3052

> <PDB RESOLUTION>
2.73

> <State Penalty>
1.5788

> <docking score>
-9.58953

> <glide emodel>
-144.828

> <glide gscore>
-10.8228

> <Source File>
glide-dock_SP_1_pv.maegz

> <Source Path>
C:\Users\yujie\Desktop\ENPP1_F\glide-dock_SP_1

> <entry id>
16

> <job name>
glide-dock_SP_1

> <subgroup title>
glide-dock_SP_1_pv

> <subgroupid>
glide-dock_SP_1_pv

> <PDB EXPDTA>
X-RAY DIFFRACTION

> <PDB ID>
6WEW

> <PDB TITLE>
Crystal structures of human E-NPP 1: bound to N-{4-[(7-methoxyquinolin-4-yl)oxy]phenyl}sulfuric diamide

> <subgroup title>
glide-dock_SP_compound7_to_6wevchainB_pv

> <subgroupid>
glide-dock_SP_compound7_to_6wevchainB_pv

$$$$
