3FLN_1
                    3D
 Schrodinger Suite 2024-1.
 46 49  0  0  1  0            999 V2000
   26.9886    8.9837   30.3025 C   0  0  0  0  0  0
   28.3959    9.5440   30.5865 C   0  0  0  0  0  0
   28.6175    8.2625   32.5992 C   0  0  0  0  0  0
   27.2263    7.6247   32.4234 C   0  0  0  0  0  0
   15.8761   10.5718   31.6772 C   0  0  0  0  0  0
   29.1647    8.5939   31.3236 O   0  0  0  0  0  0
   21.2447   12.5854   31.2948 C   0  0  0  0  0  0
   17.1644   11.0958   31.7815 C   0  0  0  0  0  0
   23.8452    8.5398   31.1092 C   0  0  0  0  0  0
   26.3064    8.5623   31.6188 C   0  0  0  0  0  0
   21.4390    9.7459   30.7638 C   0  0  0  0  0  0
   20.1657   10.4560   30.6368 C   0  0  0  0  0  0
   15.1166   10.8107   30.5333 C   0  0  0  0  0  0
   15.6383   11.5864   29.5012 C   0  0  0  0  0  0
   16.9129   12.1388   29.6138 C   0  0  0  0  0  0
   22.5526   10.4739   31.2007 C   0  0  0  0  0  0
   21.6193    8.3901   30.4860 C   0  0  0  0  0  0
   20.0776   11.7849   30.9096 C   0  0  0  0  0  0
   17.6858   11.8885   30.7488 C   0  0  0  0  0  0
   23.6156   12.6102   31.8890 C   0  0  0  0  0  0
   13.8815   10.2791   30.4129 F   0  0  0  0  0  0
   18.9140   12.5001   30.8615 O   0  0  0  0  0  0
   22.8165    7.7725   30.6593 N   0  0  0  0  0  0
   21.1466   13.8035   31.4691 O   0  0  0  0  0  0
   22.4119   11.8740   31.4512 N   0  0  0  0  0  0
   23.7628    9.8731   31.3790 N   0  0  0  0  0  0
   25.0583    7.8652   31.3119 N   0  0  0  0  0  0
   27.0677    8.1308   29.6268 H   0  0  0  0  0  0
   26.3926    9.7357   29.7831 H   0  0  0  0  0  0
   28.3416   10.4909   31.1267 H   0  0  0  0  0  0
   28.9126    9.7482   29.6510 H   0  0  0  0  0  0
   29.2905    7.5635   33.0963 H   0  0  0  0  0  0
   28.5649    9.1507   33.2315 H   0  0  0  0  0  0
   26.7901    7.4108   33.4000 H   0  0  0  0  0  0
   27.3425    6.6657   31.9167 H   0  0  0  0  0  0
   15.4751    9.9623   32.4720 H   0  0  0  0  0  0
   26.0926    9.4581   32.2043 H   0  0  0  0  0  0
   19.2891    9.8967   30.3478 H   0  0  0  0  0  0
   15.0507   11.7549   28.6144 H   0  0  0  0  0  0
   17.3046   12.7565   28.8185 H   0  0  0  0  0  0
   20.8003    7.7799   30.1372 H   0  0  0  0  0  0
   23.9957   12.1838   32.8180 H   0  0  0  0  0  0
   24.4008   12.5247   31.1368 H   0  0  0  0  0  0
   23.4525   13.6741   32.0681 H   0  0  0  0  0  0
   25.1284    6.9101   30.9877 H   0  0  0  0  0  0
   17.7612   10.8912   32.6581 H   0  0  0  0  0  0
  1  2  1  0  0  0
  1 10  1  0  0  0
  1 28  1  0  0  0
  1 29  1  0  0  0
  2  6  1  0  0  0
  2 30  1  0  0  0
  2 31  1  0  0  0
  3  4  1  0  0  0
  3  6  1  0  0  0
  3 32  1  0  0  0
  3 33  1  0  0  0
  4 10  1  0  0  0
  4 34  1  0  0  0
  4 35  1  0  0  0
  5  8  2  0  0  0
  5 13  1  0  0  0
  5 36  1  0  0  0
  7 18  1  0  0  0
  7 24  2  0  0  0
  7 25  1  0  0  0
  8 19  1  0  0  0
  8 46  1  0  0  0
  9 23  1  0  0  0
  9 26  2  0  0  0
  9 27  1  0  0  0
 10 27  1  0  0  0
 10 37  1  0  0  0
 11 12  1  0  0  0
 11 16  2  0  0  0
 11 17  1  0  0  0
 12 18  2  0  0  0
 12 38  1  0  0  0
 13 14  2  0  0  0
 13 21  1  0  0  0
 14 15  1  0  0  0
 14 39  1  0  0  0
 15 19  2  0  0  0
 15 40  1  0  0  0
 16 25  1  0  0  0
 16 26  1  0  0  0
 17 23  2  0  0  0
 17 41  1  0  0  0
 18 22  1  0  0  0
 19 22  1  0  0  0
 20 25  1  0  0  0
 20 42  1  0  0  0
 20 43  1  0  0  0
 20 44  1  0  0  0
 27 45  1  0  0  0
M  END
> <Source File Index>
1

> <stars>
0

> <prepared>
1

> <Potential Energy-S-OPLS>
-1427.46

> <PDB EXPDTA PH>
7.6

> <PDB EXPDTA TEMPERATURE>
100

> <PDB RESOLUTION>
1.9

> <Source File>
3fln.pdb

> <Source Path>
C:\Users\yujie\Desktop\F

> <entry id>
23

> <PDB EXPDTA>
X-RAY DIFFRACTION

> <PDB ID>
3FLN

> <PDB TITLE>
P38 KINASE CRYSTAL STRUCTURE IN COMPLEX WITH R1487

$$$$
