4DKO_1
                    3D
 Schrodinger Suite 2024-1.
 51 52  0  0  1  0            999 V2000
   28.0887  -15.6360   37.5634 C   0  0  0  0  0  0
   28.4601  -15.6876   35.0881 C   0  0  1  0  0  0
   28.1740  -13.6444   33.4241 C   0  0  0  0  0  0
   30.4974  -14.0549   34.7874 C   0  0  0  0  0  0
   31.9662  -14.1396   34.2983 C   0  0  0  0  0  0
   27.3328  -12.6519   34.2548 C   0  0  0  0  0  0
   27.9231  -13.4734   31.9037 C   0  0  0  0  0  0
   27.1599  -14.9142   43.4955 C   0  0  0  0  0  0
   25.8057  -14.5946   43.5930 C   0  0  0  0  0  0
   25.0231  -14.5369   42.4375 C   0  0  0  0  0  0
   25.5984  -14.7799   41.1905 C   0  0  0  0  0  0
   26.9625  -15.0931   41.0862 C   0  0  0  0  0  0
   27.7328  -15.1679   42.2495 C   0  0  0  0  0  0
   27.6124  -15.3668   39.8688 N   0  0  0  0  0  0
   27.2471  -15.0039   38.6181 C   0  0  0  0  0  0
   26.3283  -14.2225   38.3592 O   0  0  0  0  0  0
   27.8678  -15.1505   36.3211 N   0  0  0  0  0  0
   28.9103  -16.5250   37.8093 O   0  0  0  0  0  0
   27.8432  -15.1274   33.7932 C   0  0  0  0  0  0
   29.6961  -13.3179   33.6554 N   0  3  2  0  0  0
   29.9843  -15.5129   34.9372 C   0  0  0  0  0  0
   30.3642  -13.2395   36.0931 C   0  0  0  0  0  0
   30.1004  -11.8315   33.4237 C   0  0  0  0  0  0
   25.1117  -14.2713   45.1424 Cl  0  0  0  0  0  0
   23.7035  -14.2540   42.5167 F   0  0  0  0  0  0
   28.2639  -16.7631   35.1142 H   0  0  0  0  0  0
   32.5627  -14.7479   34.9796 H   0  0  0  0  0  0
   32.0465  -14.5970   33.3111 H   0  0  0  0  0  0
   32.4663  -13.1750   34.2531 H   0  0  0  0  0  0
   27.5000  -12.7109   35.3266 H   0  0  0  0  0  0
   27.4758  -11.6146   33.9523 H   0  0  0  0  0  0
   26.2842  -12.8717   34.0854 H   0  0  0  0  0  0
   28.6238  -14.0543   31.3019 H   0  0  0  0  0  0
   26.9205  -13.8136   31.6395 H   0  0  0  0  0  0
   27.9778  -12.4379   31.5707 H   0  0  0  0  0  0
   27.7695  -14.9687   44.3844 H   0  0  0  0  0  0
   24.9675  -14.7348   40.3176 H   0  0  0  0  0  0
   28.7827  -15.4120   42.1946 H   0  0  0  0  0  0
   28.4484  -15.9311   39.9443 H   0  0  0  0  0  0
   27.1581  -14.4388   36.2137 H   0  0  0  0  0  0
   26.7610  -15.2660   33.8361 H   0  0  0  0  0  0
   28.1745  -15.7812   32.9831 H   0  0  0  0  0  0
   30.0382  -13.8997   32.9044 H   0  0  0  0  0  0
   30.2832  -16.0907   34.0593 H   0  0  0  0  0  0
   30.4929  -16.0012   35.7700 H   0  0  0  0  0  0
   29.3373  -13.0371   36.3773 H   0  0  0  0  0  0
   30.8178  -13.7851   36.9190 H   0  0  0  0  0  0
   30.8635  -12.2753   36.0360 H   0  0  0  0  0  0
   31.1799  -11.7636   33.3153 H   0  0  0  0  0  0
   29.6355  -11.4698   32.5100 H   0  0  0  0  0  0
   29.7608  -11.2503   34.2815 H   0  0  0  0  0  0
  1 15  1  0  0  0
  1 17  1  0  0  0
  1 18  2  0  0  0
  2 17  1  0  0  0
  2 19  1  0  0  0
  2 21  1  0  0  0
  2 26  1  0  0  0
  3  6  1  0  0  0
  3  7  1  0  0  0
  3 19  1  0  0  0
  3 20  1  0  0  0
  4  5  1  0  0  0
  4 20  1  0  0  0
  4 21  1  0  0  0
  4 22  1  0  0  0
  5 27  1  0  0  0
  5 28  1  0  0  0
  5 29  1  0  0  0
  6 30  1  0  0  0
  6 31  1  0  0  0
  6 32  1  0  0  0
  7 33  1  0  0  0
  7 34  1  0  0  0
  7 35  1  0  0  0
  8  9  2  0  0  0
  8 13  1  0  0  0
  8 36  1  0  0  0
  9 10  1  0  0  0
  9 24  1  0  0  0
 10 11  2  0  0  0
 10 25  1  0  0  0
 11 12  1  0  0  0
 11 37  1  0  0  0
 12 13  2  0  0  0
 12 14  1  0  0  0
 13 38  1  0  0  0
 14 15  1  0  0  0
 14 39  1  0  0  0
 15 16  2  0  0  0
 17 40  1  0  0  0
 19 41  1  0  0  0
 19 42  1  0  0  0
 20 23  1  0  0  0
 20 43  1  0  0  0
 21 44  1  0  0  0
 21 45  1  0  0  0
 22 46  1  0  0  0
 22 47  1  0  0  0
 22 48  1  0  0  0
 23 49  1  0  0  0
 23 50  1  0  0  0
 23 51  1  0  0  0
M  CHG  1  20   1
M  END
> <Source File Index>
1

> <stars>
0

> <prepared>
1

> <Potential Energy-S-OPLS>
-1190

> <PDB EXPDTA PH>
7.5

> <PDB EXPDTA TEMPERATURE>
100

> <PDB RESOLUTION>
1.98

> <Source File>
4dko.pdb

> <Source Path>
C:\Users\yujie\Desktop\F

> <entry id>
27

> <PDB EXPDTA>
X-RAY DIFFRACTION

> <PDB ID>
4DKO

> <PDB TITLE>
CRYSTAL STRUCTURE OF CLADE A/E 93TH057 HIV-1 GP120 CORE IN COMPLEX WITH TS-II-224

$$$$
