4DKO_2_1
                    3D
 Schrodinger Suite 2024-1.
 51 52  0  0  1  0            999 V2000
   27.9886  -15.5960   37.4321 C   0  0  0  0  0  0
   29.1264  -17.3998   36.0920 C   0  0  1  0  0  0
   29.6118  -17.9659   33.6589 C   0  0  0  0  0  0
   31.5574  -17.2168   35.1688 C   0  0  0  0  0  0
   32.9721  -17.5907   35.6997 C   0  0  0  0  0  0
   29.6892  -17.2705   32.2748 C   0  0  0  0  0  0
   28.8149  -19.2774   33.4460 C   0  0  0  0  0  0
   27.1093  -15.1401   43.4715 C   0  0  0  0  0  0
   25.7723  -14.7242   43.6091 C   0  0  0  0  0  0
   24.9885  -14.4982   42.4628 C   0  0  0  0  0  0
   25.5433  -14.6753   41.1805 C   0  0  0  0  0  0
   26.8886  -15.0926   41.0351 C   0  0  0  0  0  0
   27.6663  -15.3115   42.1909 C   0  0  0  0  0  0
   27.5259  -15.2519   39.7753 N   0  0  0  0  0  0
   26.9652  -15.4421   38.5700 C   0  0  0  0  0  0
   25.7621  -15.5859   38.3426 O   0  0  0  0  0  0
   28.1695  -16.8633   37.0530 N   0  0  0  0  0  0
   28.5897  -14.6269   36.9684 O   0  0  0  0  0  0
   28.7909  -17.0689   34.6294 C   0  0  0  0  0  0
   30.9821  -18.2617   34.2280 N   0  3  2  0  0  0
   30.5999  -17.0352   36.3898 C   0  0  0  0  0  0
   31.7938  -15.8496   34.4665 C   0  0  0  0  0  0
   31.9514  -18.8648   33.2771 C   0  0  0  0  0  0
   25.1035  -14.4729   45.1784 Cl  0  0  0  0  0  0
   29.0178  -18.4775   36.2221 H   0  0  0  0  0  0
   33.3040  -16.8707   36.4486 H   0  0  0  0  0  0
   33.0306  -18.5672   36.1759 H   0  0  0  0  0  0
   33.7257  -17.5786   34.9126 H   0  0  0  0  0  0
   30.2668  -16.3493   32.2899 H   0  0  0  0  0  0
   30.1257  -17.9169   31.5136 H   0  0  0  0  0  0
   28.6912  -17.0079   31.9215 H   0  0  0  0  0  0
   28.6475  -19.8125   34.3815 H   0  0  0  0  0  0
   27.8282  -19.0845   33.0252 H   0  0  0  0  0  0
   29.3138  -19.9746   32.7751 H   0  0  0  0  0  0
   27.7124  -15.3375   44.3449 H   0  0  0  0  0  0
   24.9207  -14.4769   40.3213 H   0  0  0  0  0  0
   28.6944  -15.6362   42.1050 H   0  0  0  0  0  0
   28.5373  -15.3391   39.7832 H   0  0  0  0  0  0
   27.6396  -17.5520   37.5746 H   0  0  0  0  0  0
   28.9484  -16.0070   34.4572 H   0  0  0  0  0  0
   27.7348  -17.1921   34.4252 H   0  0  0  0  0  0
   30.7964  -19.1007   34.8544 H   0  0  0  0  0  0
   30.9002  -17.6675   37.2225 H   0  0  0  0  0  0
   30.6989  -16.0201   36.7731 H   0  0  0  0  0  0
   30.8883  -15.3288   34.1739 H   0  0  0  0  0  0
   32.3073  -15.1575   35.1365 H   0  0  0  0  0  0
   32.4170  -15.9472   33.5784 H   0  0  0  0  0  0
   32.7348  -19.3965   33.8171 H   0  0  0  0  0  0
   31.4780  -19.6176   32.6502 H   0  0  0  0  0  0
   32.4107  -18.1172   32.6325 H   0  0  0  0  0  0
   23.9571  -14.1943   42.5661 H   0  0  0  0  0  0
  1 15  1  0  0  0
  1 17  1  0  0  0
  1 18  2  0  0  0
  2 17  1  0  0  0
  2 19  1  0  0  0
  2 21  1  0  0  0
  2 25  1  0  0  0
  3  6  1  0  0  0
  3  7  1  0  0  0
  3 19  1  0  0  0
  3 20  1  0  0  0
  4  5  1  0  0  0
  4 20  1  0  0  0
  4 21  1  0  0  0
  4 22  1  0  0  0
  5 26  1  0  0  0
  5 27  1  0  0  0
  5 28  1  0  0  0
  6 29  1  0  0  0
  6 30  1  0  0  0
  6 31  1  0  0  0
  7 32  1  0  0  0
  7 33  1  0  0  0
  7 34  1  0  0  0
  8  9  2  0  0  0
  8 13  1  0  0  0
  8 35  1  0  0  0
  9 10  1  0  0  0
  9 24  1  0  0  0
 10 11  2  0  0  0
 10 51  1  0  0  0
 11 12  1  0  0  0
 11 36  1  0  0  0
 12 13  2  0  0  0
 12 14  1  0  0  0
 13 37  1  0  0  0
 14 15  1  0  0  0
 14 38  1  0  0  0
 15 16  2  0  0  0
 17 39  1  0  0  0
 19 40  1  0  0  0
 19 41  1  0  0  0
 20 23  1  0  0  0
 20 42  1  0  0  0
 21 43  1  0  0  0
 21 44  1  0  0  0
 22 45  1  0  0  0
 22 46  1  0  0  0
 22 47  1  0  0  0
 23 48  1  0  0  0
 23 49  1  0  0  0
 23 50  1  0  0  0
M  CHG  1  20   1
M  END
> <Source File Index>
1

> <stars>
0

> <prepared>
1

> <Potential Energy-S-OPLS>
-1190

> <PDB EXPDTA PH>
7.5

> <PDB EXPDTA TEMPERATURE>
100

> <PDB RESOLUTION>
1.98

> <Source File>
4dko.pdb

> <Source Path>
C:\Users\yujie\Desktop\F

> <entry id>
162

> <PDB EXPDTA>
X-RAY DIFFRACTION

> <PDB ID>
4DKO

> <PDB TITLE>
CRYSTAL STRUCTURE OF CLADE A/E 93TH057 HIV-1 GP120 CORE IN COMPLEX WITH TS-II-224

$$$$
