4E3N_2
                    3D
 Schrodinger Suite 2024-1.
 28 29  0  0  1  0            999 V2000
   25.9964    4.9911   15.8712 B   0  5  0  0  0  0
   24.9266    4.0835   16.3002 O   0  0  0  0  0  0
   26.0663    6.0163   16.9055 O   0  0  0  0  0  0
   25.5286    5.7269   14.5250 C   0  0  0  0  0  0
   24.4518    6.6214   14.9155 N   0  0  0  0  0  0
   23.7033    7.6888   13.8201 S   0  0  0  0  0  0
   22.8409    8.5764   14.6119 O   0  0  0  0  0  0
   24.7629    8.2419   12.9616 O   0  0  0  0  0  0
   22.6708    6.6240   12.8229 C   0  0  0  0  0  0
   23.1565    6.1514   11.5896 C   0  0  0  0  0  0
   22.3058    5.4132   10.7468 C   0  0  0  0  0  0
   20.9765    5.1303   11.1275 C   0  0  0  0  0  0
   20.0810    4.3972   10.2159 C   0  0  0  0  0  0
   19.1346    3.5661   10.6629 N   0  5  0  0  0  0
   18.5176    3.1937    9.5391 N   0  0  0  0  0  0
   19.1105    3.7709    8.4827 N   0  0  0  0  0  0
   20.1313    4.5381    8.8870 N   0  0  0  0  0  0
   20.5186    5.5861   12.3862 C   0  0  0  0  0  0
   21.3591    6.3326   13.2357 C   0  0  0  0  0  0
   24.1833    3.9331   15.7157 H   0  0  0  0  0  0
   25.5946    6.8098   16.6924 H   0  0  0  0  0  0
   25.1775    5.0022   13.7888 H   0  0  0  0  0  0
   26.3480    6.2972   14.0990 H   0  0  0  0  0  0
   23.8212    6.1707   15.5810 H   0  0  0  0  0  0
   24.1647    6.3717   11.2828 H   0  0  0  0  0  0
   22.6548    5.0637    9.7867 H   0  0  0  0  0  0
   19.5006    5.3805   12.6829 H   0  0  0  0  0  0
   20.9984    6.7052   14.1835 H   0  0  0  0  0  0
  1  2  1  0  0  0
  1  3  1  0  0  0
  1  4  1  0  0  0
  2 20  1  0  0  0
  3 21  1  0  0  0
  4  5  1  0  0  0
  4 22  1  0  0  0
  4 23  1  0  0  0
  5  6  1  0  0  0
  5 24  1  0  0  0
  6  7  2  0  0  0
  6  8  2  0  0  0
  6  9  1  0  0  0
  9 10  2  0  0  0
  9 19  1  0  0  0
 10 11  1  0  0  0
 10 25  1  0  0  0
 11 12  2  0  0  0
 11 26  1  0  0  0
 12 13  1  0  0  0
 12 18  1  0  0  0
 13 14  1  0  0  0
 13 17  2  0  0  0
 14 15  1  0  0  0
 15 16  2  0  0  0
 16 17  1  0  0  0
 18 19  2  0  0  0
 18 27  1  0  0  0
 19 28  1  0  0  0
M  CHG  2   1  -1  14  -1
M  END
> <Source File Index>
1

> <stars>
0

> <prepared>
1

> <Potential Energy-S-OPLS>
-1491.88

> <PDB EXPDTA PH>
8.8

> <PDB EXPDTA TEMPERATURE>
80

> <PDB RESOLUTION>
1.49

> <Source File>
4e3n.pdb

> <Source Path>
C:\Users\yujie\Documents\Schrodinger

> <entry id>
100

> <PDB EXPDTA>
X-RAY DIFFRACTION

> <PDB ID>
4E3N

> <PDB TITLE>
CRYSTAL STRUCTURE OF AMPC BETA-LACTAMASE IN COMPLEX WITH A 2- TRIFLUOROMETHYL-4-TETRAZOLYL BENZENE SULFONAMIDE BORONIC ACID INHIBITOR

$$$$
