4I80_1
                    3D
 Schrodinger Suite 2024-1.
165170  0  0  1  0            999 V2000
  -37.4468   27.7168   27.6330 C   0  0  0  0  0  0
  -38.6765   27.7419   27.6108 O   0  0  0  0  0  0
  -36.7275   26.9472   28.7342 C   0  0  0  0  0  0
  -36.6694   28.3582   26.7429 N   0  0  0  0  0  0
  -37.1434   29.3035   25.7260 C   0  0  2  0  0  0
  -38.1214   28.6876   24.7156 C   0  0  0  0  0  0
  -39.2690   29.1114   24.6475 O   0  0  0  0  0  0
  -35.9648   30.0071   25.0122 C   0  0  0  0  0  0
  -34.7887   30.3828   25.9383 C   0  0  0  0  0  0
  -33.7495   31.3269   25.3076 C   0  0  0  0  0  0
  -34.2325   32.7205   25.2505 N   0  0  0  0  0  0
  -34.7803   33.3940   24.2199 C   0  0  0  0  0  0
  -34.9195   32.8674   22.9930 N   0  0  0  0  0  0
  -35.2009   34.6483   24.4317 N   0  3  0  0  0  0
  -37.6550   27.6745   23.9800 N   0  0  0  0  0  0
  -38.4384   26.9411   22.9985 C   0  0  2  0  0  0
  -37.8346   25.5473   22.8440 C   0  0  0  0  0  0
  -36.6542   25.4087   22.5211 O   0  0  0  0  0  0
  -38.5266   27.7186   21.6641 C   0  0  0  0  0  0
  -38.6832   26.9288   20.3957 C   0  0  0  0  0  0
  -37.6518   26.6117   19.5792 C   0  0  0  0  0  0
  -39.8539   26.2551   19.8397 C   0  0  0  0  0  0
  -38.0845   25.7684   18.5837 N   0  0  0  0  0  0
  -39.4267   25.4945   18.7070 C   0  0  0  0  0  0
  -41.2222   26.1667   20.1915 C   0  0  0  0  0  0
  -40.2930   24.6644   17.9858 C   0  0  0  0  0  0
  -42.1068   25.3433   19.4641 C   0  0  0  0  0  0
  -41.6366   24.5874   18.3724 C   0  0  0  0  0  0
  -40.7386   23.5302   21.7349 O   0  0  0  0  0  0
  -39.7040   22.8603   21.6773 C   0  0  0  0  0  0
  -38.5484   23.1748   22.6321 C   0  0  1  0  0  0
  -38.7159   24.5638   23.0153 N   0  0  0  0  0  0
  -38.6765   22.2506   23.8568 C   0  0  0  0  0  0
  -37.6723   22.5395   24.9858 C   0  0  0  0  0  0
  -37.9465   21.6551   26.2110 C   0  0  0  0  0  0
  -36.7895   21.6509   27.2285 C   0  0  0  0  0  0
  -36.9637   20.6548   28.3939 C   0  0  0  0  0  0
  -37.2827   19.2301   27.9145 C   0  0  0  0  0  0
  -36.9728   18.1000   28.9152 C   0  0  0  0  0  0
  -37.6022   16.8462   28.5205 N   0  0  0  0  0  0
  -39.5675   21.7828   20.8878 N   0  0  0  0  0  0
  -40.7102   21.1837   20.1926 C   0  0  2  0  0  0
  -41.7442   20.6975   21.2466 C   0  0  0  0  0  0
  -41.3120   20.0754   22.2162 O   0  0  0  0  0  0
  -40.2059   20.0222   19.3152 C   0  0  0  0  0  0
  -41.2822   19.4783   18.3943 C   0  0  0  0  0  0
  -41.5911   20.1622   17.1990 C   0  0  0  0  0  0
  -42.1134   18.4169   18.8110 C   0  0  0  0  0  0
  -42.6604   19.7461   16.4183 C   0  0  0  0  0  0
  -43.1747   18.0128   18.0142 C   0  0  0  0  0  0
  -43.4398   18.6688   16.8195 C   0  0  0  0  0  0
  -43.0503   21.0336   21.1028 N   0  0  0  0  0  0
  -44.0997   20.6619   22.0788 C   0  0  2  0  0  0
  -44.1204   19.1784   22.4836 C   0  0  0  0  0  0
  -44.1386   18.3100   21.6113 O   0  0  0  0  0  0
  -45.4040   21.0764   21.3849 C   0  0  0  0  0  0
  -44.9923   22.2671   20.5447 C   0  0  0  0  0  0
  -43.6218   21.8508   20.0321 C   0  0  0  0  0  0
  -44.0780   18.9421   23.8052 N   0  0  0  0  0  0
  -44.0151   17.6312   24.4582 C   0  0  2  0  0  0
  -42.6585   16.9090   24.3272 C   0  0  0  0  0  0
  -42.6296   15.6921   24.4986 O   0  0  0  0  0  0
  -45.1838   16.7195   24.0211 C   0  0  0  0  0  0
  -41.5560   17.6277   24.0489 N   0  0  0  0  0  0
  -40.1992   17.0605   24.0357 C   0  0  2  0  0  0
  -39.7434   16.6944   25.4707 C   0  0  0  0  0  0
  -40.0245   17.4756   26.3815 O   0  0  0  0  0  0
  -39.2440   18.0910   23.3920 C   0  0  0  0  0  0
  -37.7721   17.6504   23.2881 C   0  0  0  0  0  0
  -36.8436   18.7606   22.7914 C   0  0  0  0  0  0
  -35.4888   18.2372   22.5361 N   0  0  0  0  0  0
  -34.6803   18.5139   21.4947 C   0  0  0  0  0  0
  -35.0399   19.3459   20.5052 N   0  0  0  0  0  0
  -33.4736   17.9354   21.4429 N   0  3  0  0  0  0
  -39.0358   15.5493   25.6557 N   0  0  0  0  0  0
  -38.4143   15.1893   26.9462 C   0  0  2  0  0  0
  -37.3429   16.2028   27.3716 C   0  0  0  0  0  0
  -36.3861   16.4369   26.6304 O   0  0  0  0  0  0
  -37.8337   13.7876   26.7147 C   0  0  0  0  0  0
  -37.5933   13.7117   25.2231 C   0  0  0  0  0  0
  -38.7323   14.5400   24.6415 C   0  0  0  0  0  0
  -35.6440   27.0322   28.6462 H   0  0  0  0  0  0
  -37.0215   27.3320   29.7109 H   0  0  0  0  0  0
  -36.9958   25.8918   28.6886 H   0  0  0  0  0  0
  -35.6674   28.2633   26.8151 H   0  0  0  0  0  0
  -37.6809   30.0712   26.2832 H   0  0  0  0  0  0
  -36.3549   30.8908   24.5061 H   0  0  0  0  0  0
  -35.5622   29.3689   24.2237 H   0  0  0  0  0  0
  -34.2835   29.5030   26.3387 H   0  0  0  0  0  0
  -35.2243   30.8825   26.8062 H   0  0  0  0  0  0
  -33.5537   30.9979   24.2872 H   0  0  0  0  0  0
  -32.7918   31.2577   25.8233 H   0  0  0  0  0  0
  -34.1763   33.2117   26.1312 H   0  0  0  0  0  0
  -35.3086   33.4128   22.2379 H   0  0  0  0  0  0
  -34.5884   31.9315   22.7961 H   0  0  0  0  0  0
  -35.6070   35.1854   23.6790 H   0  0  0  0  0  0
  -35.1109   35.0700   25.3451 H   0  0  0  0  0  0
  -36.7016   27.3633   24.0981 H   0  0  0  0  0  0
  -37.5757   28.2213   21.5444 H   0  0  0  0  0  0
  -39.2890   28.4969   21.7155 H   0  0  0  0  0  0
  -36.6329   26.9387   19.7300 H   0  0  0  0  0  0
  -37.4644   25.3850   17.8848 H   0  0  0  0  0  0
  -41.5872   26.7196   21.0441 H   0  0  0  0  0  0
  -39.9252   24.0749   17.1605 H   0  0  0  0  0  0
  -43.1419   25.2733   19.7644 H   0  0  0  0  0  0
  -42.2845   23.9209   17.8364 H   0  0  0  0  0  0
  -39.8128   19.2097   19.9294 H   0  0  0  0  0  0
  -39.3739   20.3619   18.6953 H   0  0  0  0  0  0
  -40.9987   21.0105   16.8886 H   0  0  0  0  0  0
  -41.9279   17.9161   19.7503 H   0  0  0  0  0  0
  -44.2590   18.3377   16.2013 H   0  0  0  0  0  0
  -43.9494   21.2889   22.9601 H   0  0  0  0  0  0
  -46.2031   21.3119   22.0866 H   0  0  0  0  0  0
  -45.7666   20.2787   20.7354 H   0  0  0  0  0  0
  -44.8904   23.1435   21.1864 H   0  0  0  0  0  0
  -45.6976   22.5186   19.7561 H   0  0  0  0  0  0
  -43.7088   21.2518   19.1248 H   0  0  0  0  0  0
  -43.0409   22.7412   19.8138 H   0  0  0  0  0  0
  -44.0618   19.7323   24.4341 H   0  0  0  0  0  0
  -44.1403   17.8361   25.5208 H   0  0  0  0  0  0
  -45.3222   15.9065   24.7310 H   0  0  0  0  0  0
  -46.1285   17.2459   23.9663 H   0  0  0  0  0  0
  -45.0167   16.2771   23.0400 H   0  0  0  0  0  0
  -41.6293   18.6227   23.8876 H   0  0  0  0  0  0
  -40.2350   16.1820   23.3949 H   0  0  0  0  0  0
  -39.2975   19.0273   23.9493 H   0  0  0  0  0  0
  -39.5896   18.3035   22.3810 H   0  0  0  0  0  0
  -37.6538   16.7467   22.6909 H   0  0  0  0  0  0
  -37.4337   17.4020   24.2933 H   0  0  0  0  0  0
  -36.7025   19.4742   23.6040 H   0  0  0  0  0  0
  -37.2891   19.3190   21.9688 H   0  0  0  0  0  0
  -35.1393   17.5852   23.2263 H   0  0  0  0  0  0
  -34.3906   19.5510   19.7558 H   0  0  0  0  0  0
  -35.9567   19.7667   20.4962 H   0  0  0  0  0  0
  -32.8422   18.1366   20.6797 H   0  0  0  0  0  0
  -33.2059   17.2575   22.1487 H   0  0  0  0  0  0
  -38.5717   13.0398   26.9988 H   0  0  0  0  0  0
  -36.9312   13.5789   27.2918 H   0  0  0  0  0  0
  -37.5686   12.6840   24.8673 H   0  0  0  0  0  0
  -36.6378   14.1782   24.9773 H   0  0  0  0  0  0
  -38.4386   14.9494   23.6802 H   0  0  0  0  0  0
  -39.6238   13.9311   24.4941 H   0  0  0  0  0  0
  -39.4573   26.8120   23.3715 H   0  0  0  0  0  0
  -37.5969   23.0125   22.1215 H   0  0  0  0  0  0
  -39.6629   24.8077   23.2682 H   0  0  0  0  0  0
  -38.5459   21.2194   23.5289 H   0  0  0  0  0  0
  -39.6905   22.3161   24.2584 H   0  0  0  0  0  0
  -37.7103   23.5858   25.2908 H   0  0  0  0  0  0
  -36.6620   22.3600   24.6125 H   0  0  0  0  0  0
  -38.1220   20.6405   25.8555 H   0  0  0  0  0  0
  -38.8697   21.9687   26.6994 H   0  0  0  0  0  0
  -36.6508   22.6561   27.6297 H   0  0  0  0  0  0
  -35.8613   21.4090   26.7077 H   0  0  0  0  0  0
  -37.7488   20.9991   29.0681 H   0  0  0  0  0  0
  -36.0446   20.6483   28.9814 H   0  0  0  0  0  0
  -36.7198   19.0325   27.0000 H   0  0  0  0  0  0
  -38.3366   19.1876   27.6339 H   0  0  0  0  0  0
  -37.3669   18.3675   29.8969 H   0  0  0  0  0  0
  -35.8965   17.9848   29.0606 H   0  0  0  0  0  0
  -38.4033   16.5568   29.0651 H   0  0  0  0  0  0
  -38.7042   21.2602   20.8815 H   0  0  0  0  0  0
  -41.1043   21.9496   19.5298 H   0  0  0  0  0  0
  -39.1803   15.1380   27.7209 H   0  0  0  0  0  0
  -42.8883   20.2603   15.4963 H   0  0  0  0  0  0
  -43.7972   17.1859   18.3226 H   0  0  0  0  0  0
  1  2  2  0  0  0
  1  3  1  0  0  0
  1  4  1  0  0  0
  3 82  1  0  0  0
  3 83  1  0  0  0
  3 84  1  0  0  0
  4  5  1  0  0  0
  4 85  1  0  0  0
  5  6  1  0  0  0
  5  8  1  0  0  0
  5 86  1  0  0  0
  6  7  2  0  0  0
  6 15  1  0  0  0
  8  9  1  0  0  0
  8 87  1  0  0  0
  8 88  1  0  0  0
  9 10  1  0  0  0
  9 89  1  0  0  0
  9 90  1  0  0  0
 10 11  1  0  0  0
 10 91  1  0  0  0
 10 92  1  0  0  0
 11 12  1  0  0  0
 11 93  1  0  0  0
 12 13  1  0  0  0
 12 14  2  0  0  0
 13 94  1  0  0  0
 13 95  1  0  0  0
 14 96  1  0  0  0
 14 97  1  0  0  0
 15 16  1  0  0  0
 15 98  1  0  0  0
 16 17  1  0  0  0
 16 19  1  0  0  0
 16143  1  0  0  0
 17 18  2  0  0  0
 17 32  1  0  0  0
 19 20  1  0  0  0
 19 99  1  0  0  0
 19100  1  0  0  0
 20 21  2  0  0  0
 20 22  1  0  0  0
 21 23  1  0  0  0
 21101  1  0  0  0
 22 24  2  0  0  0
 22 25  1  0  0  0
 23 24  1  0  0  0
 23102  1  0  0  0
 24 26  1  0  0  0
 25 27  2  0  0  0
 25103  1  0  0  0
 26 28  2  0  0  0
 26104  1  0  0  0
 27 28  1  0  0  0
 27105  1  0  0  0
 28106  1  0  0  0
 29 30  2  0  0  0
 30 31  1  0  0  0
 30 41  1  0  0  0
 31 32  1  0  0  0
 31 33  1  0  0  0
 31144  1  0  0  0
 32145  1  0  0  0
 33 34  1  0  0  0
 33146  1  0  0  0
 33147  1  0  0  0
 34 35  1  0  0  0
 34148  1  0  0  0
 34149  1  0  0  0
 35 36  1  0  0  0
 35150  1  0  0  0
 35151  1  0  0  0
 36 37  1  0  0  0
 36152  1  0  0  0
 36153  1  0  0  0
 37 38  1  0  0  0
 37154  1  0  0  0
 37155  1  0  0  0
 38 39  1  0  0  0
 38156  1  0  0  0
 38157  1  0  0  0
 39 40  1  0  0  0
 39158  1  0  0  0
 39159  1  0  0  0
 40 77  1  0  0  0
 40160  1  0  0  0
 41 42  1  0  0  0
 41161  1  0  0  0
 42 43  1  0  0  0
 42 45  1  0  0  0
 42162  1  0  0  0
 43 44  2  0  0  0
 43 52  1  0  0  0
 45 46  1  0  0  0
 45107  1  0  0  0
 45108  1  0  0  0
 46 47  2  0  0  0
 46 48  1  0  0  0
 47 49  1  0  0  0
 47109  1  0  0  0
 48 50  2  0  0  0
 48110  1  0  0  0
 49 51  2  0  0  0
 49164  1  0  0  0
 50 51  1  0  0  0
 50165  1  0  0  0
 51111  1  0  0  0
 52 53  1  0  0  0
 52 58  1  0  0  0
 53 54  1  0  0  0
 53 56  1  0  0  0
 53112  1  0  0  0
 54 55  2  0  0  0
 54 59  1  0  0  0
 56 57  1  0  0  0
 56113  1  0  0  0
 56114  1  0  0  0
 57 58  1  0  0  0
 57115  1  0  0  0
 57116  1  0  0  0
 58117  1  0  0  0
 58118  1  0  0  0
 59 60  1  0  0  0
 59119  1  0  0  0
 60 61  1  0  0  0
 60 63  1  0  0  0
 60120  1  0  0  0
 61 62  2  0  0  0
 61 64  1  0  0  0
 63121  1  0  0  0
 63122  1  0  0  0
 63123  1  0  0  0
 64 65  1  0  0  0
 64124  1  0  0  0
 65 66  1  0  0  0
 65 68  1  0  0  0
 65125  1  0  0  0
 66 67  2  0  0  0
 66 75  1  0  0  0
 68 69  1  0  0  0
 68126  1  0  0  0
 68127  1  0  0  0
 69 70  1  0  0  0
 69128  1  0  0  0
 69129  1  0  0  0
 70 71  1  0  0  0
 70130  1  0  0  0
 70131  1  0  0  0
 71 72  1  0  0  0
 71132  1  0  0  0
 72 73  1  0  0  0
 72 74  2  0  0  0
 73133  1  0  0  0
 73134  1  0  0  0
 74135  1  0  0  0
 74136  1  0  0  0
 75 76  1  0  0  0
 75 81  1  0  0  0
 76 77  1  0  0  0
 76 79  1  0  0  0
 76163  1  0  0  0
 77 78  2  0  0  0
 79 80  1  0  0  0
 79137  1  0  0  0
 79138  1  0  0  0
 80 81  1  0  0  0
 80139  1  0  0  0
 80140  1  0  0  0
 81141  1  0  0  0
 81142  1  0  0  0
M  CHG  2  14   1  74   1
M  END
> <Source File Index>
1

> <stars>
0

> <prepared>
1

> <Potential Energy-S-OPLS>
-1471.11

> <PDB EXPDTA PH>
7

> <PDB EXPDTA TEMPERATURE>
100

> <PDB RESOLUTION>
3.1

> <Source File>
4i80.pdb

> <Source Path>
C:\Users\yujie\Desktop\F

> <entry id>
30

> <PDB EXPDTA>
X-RAY DIFFRACTION

> <PDB ID>
4I80

> <PDB TITLE>
CRYSTAL STRUCTURE OF HUMAN MENIN IN COMPLEX WITH A HIGH-AFFINITY MACROCYCLIC PEPTIDOMIMETICS

$$$$
