4NBL_ligand
                    3D
 Schrodinger Suite 2023-4.
 35 37  0  0  1  0            999 V2000
   31.1760   21.1671   -5.8845 C   0  0  0  0  0  0
   28.9038   26.6137   -6.9290 C   0  0  0  0  0  0
   31.1173   20.6964   -4.5547 C   0  0  0  0  0  0
   29.4417   24.2568   -6.7077 C   0  0  0  0  0  0
   29.7602   24.1829   -8.0210 N   0  0  0  0  0  0
   29.6305   25.2766   -8.7931 C   0  0  0  0  0  0
   29.2117   26.5186   -8.2969 C   0  0  0  0  0  0
   28.9950   25.4696   -6.0973 C   0  0  0  0  0  0
   29.5909   23.0821   -5.9544 N   0  0  0  0  0  0
   29.9362   21.7830   -6.5180 C   0  0  0  0  0  0
   32.2489   20.1083   -3.9558 C   0  0  0  0  0  0
   33.4475   19.9854   -4.6835 C   0  0  0  0  0  0
   33.5180   20.4607   -6.0034 C   0  0  0  0  0  0
   32.3871   21.0446   -6.6048 C   0  0  0  0  0  0
   32.4830   21.4641   -7.8956 O   0  0  0  0  0  0
   28.6317   25.6130   -4.6591 C   0  0  0  0  0  0
   28.2618   24.5220   -3.9742 N   0  0  0  0  0  0
   27.9151   24.6696   -2.6804 C   0  0  0  0  0  0
   27.9194   25.9246   -2.0533 C   0  0  0  0  0  0
   28.3185   27.0084   -2.8513 C   0  0  0  0  0  0
   28.6701   26.8463   -4.1417 N   0  0  0  0  0  0
   28.5740   27.5664   -6.5410 H   0  0  0  0  0  0
   30.1958   20.7737   -3.9953 H   0  0  0  0  0  0
   29.8850   25.1600   -9.8366 H   0  0  0  0  0  0
   29.1372   27.3771   -8.9479 H   0  0  0  0  0  0
   29.2295   23.1217   -5.0057 H   0  0  0  0  0  0
   30.0394   21.8070   -7.6020 H   0  0  0  0  0  0
   29.1005   21.1085   -6.3284 H   0  0  0  0  0  0
   32.1950   19.7443   -2.9409 H   0  0  0  0  0  0
   34.4429   20.3696   -6.5540 H   0  0  0  0  0  0
   33.3741   21.4430   -8.2132 H   0  0  0  0  0  0
   27.6255   23.7783   -2.1445 H   0  0  0  0  0  0
   27.6384   26.0495   -1.0188 H   0  0  0  0  0  0
   28.3559   28.0116   -2.4532 H   0  0  0  0  0  0
   34.3170   19.5311   -4.2312 H   0  0  0  0  0  0
  1  3  2  0  0  0
  1 10  1  0  0  0
  1 14  1  0  0  0
  2  7  2  0  0  0
  2  8  1  0  0  0
  2 22  1  0  0  0
  3 11  1  0  0  0
  3 23  1  0  0  0
  4  5  1  0  0  0
  4  8  2  0  0  0
  4  9  1  0  0  0
  5  6  2  0  0  0
  6  7  1  0  0  0
  6 24  1  0  0  0
  7 25  1  0  0  0
  8 16  1  0  0  0
  9 10  1  0  0  0
  9 26  1  0  0  0
 10 27  1  0  0  0
 10 28  1  0  0  0
 11 12  2  0  0  0
 11 29  1  0  0  0
 12 13  1  0  0  0
 12 35  1  0  0  0
 13 14  2  0  0  0
 13 30  1  0  0  0
 14 15  1  0  0  0
 15 31  1  0  0  0
 16 17  2  0  0  0
 16 21  1  0  0  0
 17 18  1  0  0  0
 18 19  2  0  0  0
 18 32  1  0  0  0
 19 20  1  0  0  0
 19 33  1  0  0  0
 20 21  2  0  0  0
 20 34  1  0  0  0
M  END
> <i_epik_Tot_Q>
0

> <i_epik_Tot_abs_Q>
0

> <i_i_glide_confnum>
30

> <i_i_glide_lignum>
1

> <i_i_glide_posenum>
283

> <i_i_glide_rotatable_bonds>
5

> <i_lp_mmshare_version>
64132

> <i_m_source_file_index>
1

> <PDB EXPDTA TEMPERATURE>
100

> <Source File Index>
1

> <entry id>
16

> <i_f3d_flags>
0

> <prepared>
1

> <stars>
0

> <b_lp_Chiralities_Consistent>
1

> <r_epik_Charging_Adjusted_Penalty>
0

> <r_epik_Ionization_Penalty>
0.0058

> <r_epik_Ionization_Penalty_Charging>
0

> <r_epik_Ionization_Penalty_Neutral>
0.0058

> <r_epik_State_Penalty>
-0

> <r_i_docking_score>
-7.75743

> <r_i_glide_ecoul>
-4.02566

> <r_i_glide_eff_state_penalty>
-0

> <r_i_glide_einternal>
8.65997

> <r_i_glide_emodel>
-64.4631

> <r_i_glide_energy>
-47.7611

> <r_i_glide_erotb>
0.930794

> <r_i_glide_esite>
0

> <r_i_glide_evdw>
-43.7355

> <r_i_glide_gscore>
-7.75743

> <r_i_glide_hbond>
0

> <r_i_glide_ligand_efficiency>
-0.369401

> <r_i_glide_ligand_efficiency_ln>
-1.91801

> <r_i_glide_ligand_efficiency_sa>
-1.01915

> <r_i_glide_lipo>
-3.77739

> <r_i_glide_metal>
-0

> <r_i_glide_rewards>
-2.12021

> <r_lp_Energy>
15.9069

> <r_lp_tautomer_probability>
1

> <PDB EXPDTA PH>
8.5

> <PDB RESOLUTION>
1.76

> <Potential Energy-S-OPLS>
-2308.61

> <s_epik_cmdline>
J2VwaWtfcHl0aG9uJywgJy1waHQnLCAnMi4wJywgJy1waCcsICc3LjQnLCAnLXRuJywgJzgnLCAnLW1hJywgJzIwMCcsICctaW1hZScsICc8aW5maWxlLm1hZT4nLCAnLW9tYWUnLCAnPG91dGZpbGUubWFlPic=

> <s_epik_input>
W09IXWMxW2NIXVtjSF1bY0hdW2NIXWMxW0NIMl1bTkhdYzJuW2NIXVtjSF1bY0hdYzItYzNuW2NIXVtjSF1bY0hdbjM=

> <s_i_glide_gridfile>
glide-grid_4nbl

> <s_lp_Force_Field>
OPLS_2005

> <s_lp_Variant>
4NBL_ligand-1

> <s_m_source_file>
/home/user-home/yujie/0_PBCNetv2/data_BindingDB/F/docking/4NBL_ligand.sdf

> <PDB EXPDTA>
X-RAY DIFFRACTION

> <PDB ID>
4NBL

> <PDB TITLE>
TAILORING SMALL MOLECULES FOR AN ALLOSTERIC SITE ON PROCASPASE-6

> <Source File>
4nbl.pdb

> <Source Path>
C:\Users\yujie\Desktop\F

$$$$
