4OG6_1
                    3D
 Schrodinger Suite 2024-1.
 66 69  0  0  1  0            999 V2000
  -17.3778    8.8663  -11.2926 C   0  0  0  0  0  0
  -18.0196    8.0621  -12.2333 C   0  0  0  0  0  0
  -19.3563    7.8792  -12.1628 F   0  0  0  0  0  0
  -17.2837    7.4367  -13.2357 C   0  0  0  0  0  0
  -15.9051    7.6138  -13.2942 C   0  0  0  0  0  0
  -15.2662    8.4160  -12.3527 C   0  0  0  0  0  0
  -15.9835    9.0494  -11.3251 C   0  0  0  0  0  0
  -15.2547    9.8891  -10.2382 C   0  0  2  0  0  0
  -14.6491    8.9666   -9.1143 C   0  0  0  0  0  0
  -13.3843    8.1542   -9.4844 C   0  0  0  0  0  0
  -13.4156    6.8700   -8.6446 C   0  0  0  0  0  0
  -14.6783    6.9515   -7.7801 C   0  0  0  0  0  0
  -15.6026    7.9095   -8.5229 C   0  0  0  0  0  0
  -16.1592   10.7364   -9.5363 O   0  0  0  0  0  0
  -14.1773   10.8618  -10.8623 C   0  0  1  0  0  0
  -14.7665   11.8927  -11.8618 C   0  0  0  0  0  0
  -13.6662   12.6873  -12.5932 C   0  0  0  0  0  0
  -13.3479   11.6727   -9.8342 C   0  0  0  0  0  0
  -12.1819   12.4074  -10.5120 C   0  0  0  0  0  0
  -12.7518   13.3957  -11.5602 N   0  3  1  0  0  0
  -11.6339   14.1666  -12.3097 C   0  0  0  0  0  0
  -10.6854   14.8967  -11.3378 C   0  0  0  0  0  0
   -9.7158   15.8594  -12.0315 C   0  0  0  0  0  0
  -10.4471   16.9578  -12.5593 O   0  0  0  0  0  0
   -9.7703   18.0975  -12.9430 C   0  0  0  0  0  0
  -10.5606   19.1607  -13.3709 C   0  0  0  0  0  0
   -9.9868   20.3604  -13.7769 C   0  0  0  0  0  0
   -8.5995   20.5026  -13.7497 C   0  0  0  0  0  0
   -7.9920   21.7413  -14.2074 C   0  0  0  0  0  0
   -7.5076   22.7257  -14.5743 N   0  0  0  0  0  0
   -7.7944   19.4497  -13.3097 C   0  0  0  0  0  0
   -8.3742   18.2452  -12.9228 C   0  0  0  0  0  0
  -17.9804    9.3219  -10.5217 H   0  0  0  0  0  0
  -17.7760    6.8113  -13.9637 H   0  0  0  0  0  0
  -15.3278    7.1246  -14.0645 H   0  0  0  0  0  0
  -14.1989    8.5184  -12.4330 H   0  0  0  0  0  0
  -14.3648    9.6050   -8.2745 H   0  0  0  0  0  0
  -12.4780    8.7219   -9.2701 H   0  0  0  0  0  0
  -13.3421    7.8977  -10.5395 H   0  0  0  0  0  0
  -12.5196    6.7766   -8.0351 H   0  0  0  0  0  0
  -13.4432    5.9947   -9.2923 H   0  0  0  0  0  0
  -14.4432    7.3711   -6.8017 H   0  0  0  0  0  0
  -15.1384    5.9774   -7.6138 H   0  0  0  0  0  0
  -16.1404    7.3630   -9.2981 H   0  0  0  0  0  0
  -16.3453    8.3473   -7.8541 H   0  0  0  0  0  0
  -16.7690   10.1838   -9.0424 H   0  0  0  0  0  0
  -13.4569   10.2536  -11.4026 H   0  0  0  0  0  0
  -15.4802   12.5566  -11.3712 H   0  0  0  0  0  0
  -15.3603   11.3710  -12.6114 H   0  0  0  0  0  0
  -14.0965   13.4676  -13.2218 H   0  0  0  0  0  0
  -13.0297   12.0459  -13.2021 H   0  0  0  0  0  0
  -12.9064   11.0148   -9.0887 H   0  0  0  0  0  0
  -13.9824   12.3475   -9.2572 H   0  0  0  0  0  0
  -11.4969   11.7347  -11.0325 H   0  0  0  0  0  0
  -11.6343   12.9880   -9.7706 H   0  0  0  0  0  0
  -13.3270   14.0626  -11.0638 H   0  0  0  0  0  0
  -12.1675   14.8759  -12.9436 H   0  0  0  0  0  0
  -11.1064   13.4437  -12.9354 H   0  0  0  0  0  0
  -10.0809   14.1670  -10.8002 H   0  0  0  0  0  0
  -11.2584   15.4400  -10.5849 H   0  0  0  0  0  0
   -9.1729   15.3604  -12.8350 H   0  0  0  0  0  0
   -8.9892   16.1943  -11.2887 H   0  0  0  0  0  0
  -11.6320   19.0494  -13.3806 H   0  0  0  0  0  0
  -10.6275   21.1646  -14.1134 H   0  0  0  0  0  0
   -6.7179   19.5438  -13.2871 H   0  0  0  0  0  0
   -7.7244   17.4408  -12.6134 H   0  0  0  0  0  0
  1  2  2  0  0  0
  1  7  1  0  0  0
  1 33  1  0  0  0
  2  3  1  0  0  0
  2  4  1  0  0  0
  4  5  2  0  0  0
  4 34  1  0  0  0
  5  6  1  0  0  0
  5 35  1  0  0  0
  6  7  2  0  0  0
  6 36  1  0  0  0
  7  8  1  0  0  0
  8  9  1  0  0  0
  8 14  1  0  0  0
  8 15  1  0  0  0
  9 10  1  0  0  0
  9 13  1  0  0  0
  9 37  1  0  0  0
 10 11  1  0  0  0
 10 38  1  0  0  0
 10 39  1  0  0  0
 11 12  1  0  0  0
 11 40  1  0  0  0
 11 41  1  0  0  0
 12 13  1  0  0  0
 12 42  1  0  0  0
 12 43  1  0  0  0
 13 44  1  0  0  0
 13 45  1  0  0  0
 14 46  1  0  0  0
 15 16  1  0  0  0
 15 18  1  0  0  0
 15 47  1  0  0  0
 16 17  1  0  0  0
 16 48  1  0  0  0
 16 49  1  0  0  0
 17 20  1  0  0  0
 17 50  1  0  0  0
 17 51  1  0  0  0
 18 19  1  0  0  0
 18 52  1  0  0  0
 18 53  1  0  0  0
 19 20  1  0  0  0
 19 54  1  0  0  0
 19 55  1  0  0  0
 20 21  1  0  0  0
 20 56  1  0  0  0
 21 22  1  0  0  0
 21 57  1  0  0  0
 21 58  1  0  0  0
 22 23  1  0  0  0
 22 59  1  0  0  0
 22 60  1  0  0  0
 23 24  1  0  0  0
 23 61  1  0  0  0
 23 62  1  0  0  0
 24 25  1  0  0  0
 25 26  2  0  0  0
 25 32  1  0  0  0
 26 27  1  0  0  0
 26 63  1  0  0  0
 27 28  2  0  0  0
 27 64  1  0  0  0
 28 29  1  0  0  0
 28 31  1  0  0  0
 29 30  3  0  0  0
 31 32  2  0  0  0
 31 65  1  0  0  0
 32 66  1  0  0  0
M  CHG  1  20   1
M  END
> <Source File Index>
1

> <stars>
0

> <prepared>
1

> <Potential Energy-S-OPLS>
-2212.74

> <PDB EXPDTA PH>
8

> <PDB RESOLUTION>
1.49

> <Source File>
4og6.pdb

> <Source Path>
C:\Users\yujie\Desktop\F

> <entry id>
29

> <PDB EXPDTA>
X-RAY DIFFRACTION

> <PDB ID>
4OG6

> <PDB TITLE>
HUMAN MENIN WITH BOUND INHIBITOR MIV-4

$$$$
