5A4L_1
                    3D
 Schrodinger Suite 2024-1.
 21 22  0  0  1  0            999 V2000
   42.3105   -2.9644  -25.8308 N   0  0  0  0  0  0
   43.1667   -3.8185  -25.2131 C   0  0  0  0  0  0
   44.5309   -3.5719  -24.9996 C   0  0  0  0  0  0
   45.2891   -4.5517  -24.3590 C   0  0  0  0  0  0
   46.6061   -4.3388  -24.1437 F   0  0  0  0  0  0
   44.7098   -5.7469  -23.9371 C   0  0  0  0  0  0
   43.3548   -6.0111  -24.1264 C   0  0  0  0  0  0
   42.5847   -5.0354  -24.7678 C   0  0  0  0  0  0
   40.8706   -5.0305  -25.1532 S   0  0  0  0  0  0
   41.1039   -3.4643  -25.8918 C   0  0  0  0  0  0
   39.9764   -2.8599  -26.4206 N   0  0  0  0  0  0
   39.9135   -1.8501  -27.3146 C   0  0  0  0  0  0
   38.8236   -1.3875  -27.6347 O   0  0  0  0  0  0
   41.1675   -1.2689  -27.9740 C   0  0  0  0  0  0
   44.9910   -2.6516  -25.3267 H   0  0  0  0  0  0
   45.3180   -6.4836  -23.4392 H   0  0  0  0  0  0
   42.9186   -6.9347  -23.7779 H   0  0  0  0  0  0
   39.0980   -3.2720  -26.1451 H   0  0  0  0  0  0
   40.8937   -0.6581  -28.8352 H   0  0  0  0  0  0
   41.7127   -0.6368  -27.2734 H   0  0  0  0  0  0
   41.8278   -2.0585  -28.3313 H   0  0  0  0  0  0
  1  2  1  0  0  0
  1 10  2  0  0  0
  2  3  2  0  0  0
  2  8  1  0  0  0
  3  4  1  0  0  0
  3 15  1  0  0  0
  4  5  1  0  0  0
  4  6  2  0  0  0
  6  7  1  0  0  0
  6 16  1  0  0  0
  7  8  2  0  0  0
  7 17  1  0  0  0
  8  9  1  0  0  0
  9 10  1  0  0  0
 10 11  1  0  0  0
 11 12  1  0  0  0
 11 18  1  0  0  0
 12 13  2  0  0  0
 12 14  1  0  0  0
 14 19  1  0  0  0
 14 20  1  0  0  0
 14 21  1  0  0  0
M  END
> <Source File Index>
1

> <stars>
0

> <prepared>
1

> <Potential Energy-S-OPLS>
-6173.35

> <PDB EXPDTA PH>
6.8

> <PDB EXPDTA TEMPERATURE>
100

> <PDB RESOLUTION>
2.73

> <Source File>
5a4l.pdb

> <Source Path>
C:\Users\yujie\Desktop\F

> <entry id>
24

> <PDB EXPDTA>
X-RAY DIFFRACTION

> <PDB ID>
5A4L

> <PDB TITLE>
DYRK1A IN COMPLEX WITH FLUORO BENZOTHIAZOLE FRAGMENT

$$$$
