7RAD
                    3D
 Schrodinger Suite 2023-4.
 35 38  0  0  1  0            999 V2000
   42.3230   -1.3670    8.0390 F   0  0  0  0  0  0
   42.5130   -0.0780    8.4070 C   0  0  0  0  0  0
   43.6880    0.2910    9.0870 C   0  0  0  0  0  0
   43.8880    1.6320    9.4770 C   0  0  0  0  0  0
   42.9060    2.6040    9.1720 C   0  0  0  0  0  0
   43.1030    3.9420    9.5180 N   0  0  0  0  0  0
   44.4800    4.3920    9.4230 C   0  0  1  0  0  0
   44.6290    5.9060    9.5540 C   0  0  0  0  0  0
   45.4330    6.6200    8.6400 C   0  0  0  0  0  0
   45.5240    8.0190    8.7490 C   0  0  0  0  0  0
   44.8090    8.6580    9.7790 C   0  0  0  0  0  0
   44.0370    7.9940   10.6630 N   0  0  0  0  0  0
   43.9480    6.6530   10.5430 C   0  0  0  0  0  0
   45.3880    3.5570   10.3610 C   0  0  2  0  0  0
   45.1290    2.0180   10.2680 C   0  0  1  0  0  0
   45.0130    1.5890   11.7070 C   0  0  0  0  0  0
   45.1220    2.5990   12.5590 C   0  0  0  0  0  0
   45.3010    3.9180   11.8670 C   0  0  0  0  0  0
   41.7270    2.2290    8.4980 C   0  0  0  0  0  0
   40.7870    3.1590    8.2060 F   0  0  0  0  0  0
   41.5310    0.8880    8.1170 C   0  0  0  0  0  0
   44.4300   -0.4590    9.3180 H   0  0  0  0  0  0
   42.3830    4.6020    9.2420 H   0  0  0  0  0  0
   44.7860    4.1590    8.4040 H   0  0  0  0  0  0
   45.9650    6.1080    7.8560 H   0  0  0  0  0  0
   46.1270    8.5890    8.0590 H   0  0  0  0  0  0
   44.8540    9.7300    9.8950 H   0  0  0  0  0  0
   43.2890    6.1700   11.2500 H   0  0  0  0  0  0
   46.4220    3.7310   10.0600 H   0  0  0  0  0  0
   45.9930    1.5200    9.8230 H   0  0  0  0  0  0
   44.8250    0.5680   11.9980 H   0  0  0  0  0  0
   45.0330    2.5130   13.6310 H   0  0  0  0  0  0
   44.4360    4.5280   12.1150 H   0  0  0  0  0  0
   46.2000    4.4280   12.2120 H   0  0  0  0  0  0
   40.6280    0.6050    7.6000 H   0  0  0  0  0  0
  1  2  1  0  0  0
  2 21  1  0  0  0
  2  3  2  0  0  0
  3  4  1  0  0  0
  3 22  1  0  0  0
  4 15  1  0  0  0
  4  5  2  0  0  0
  5  6  1  0  0  0
  5 19  1  0  0  0
  6  7  1  0  0  0
  6 23  1  0  0  0
  7  8  1  0  0  0
  7 14  1  0  0  0
  7 24  1  0  0  0
  8 13  1  0  0  0
  8  9  2  0  0  0
  9 10  1  0  0  0
  9 25  1  0  0  0
 10 11  2  0  0  0
 10 26  1  0  0  0
 11 12  1  0  0  0
 11 27  1  0  0  0
 12 13  2  0  0  0
 13 28  1  0  0  0
 14 18  1  0  0  0
 14 15  1  0  0  0
 14 29  1  0  0  0
 15 16  1  0  0  0
 15 30  1  0  0  0
 16 17  2  0  0  0
 16 31  1  0  0  0
 17 18  1  0  0  0
 17 32  1  0  0  0
 18 33  1  0  0  0
 18 34  1  0  0  0
 19 20  1  0  0  0
 19 21  2  0  0  0
 21 35  1  0  0  0
M  END
> <r_pdb_PDB_EXPDTA_TEMPERATURE>
100

> <r_pdb_PDB_RESOLUTION>
2.3

> <s_pdb_PDB_EXPDTA>
X-RAY DIFFRACTION

> <s_pdb_PDB_ID>
7RAD

> <s_pdb_PDB_TITLE>
CRYSTAL STRUCTURE ANALYSIS OF ALDH1B1

> <s_pdb_PDB_format_version>
3.0

$$$$
