7RAD
                    3D
 Schrodinger Suite 2023-4.
 35 38  0  0  1  0            999 V2000
   42.3410   -1.3540    8.1320 F   0  0  0  0  0  0
   42.5360   -0.0570    8.4620 C   0  0  0  0  0  0
   43.6840    0.3200    9.1850 C   0  0  0  0  0  0
   43.8920    1.6710    9.5320 C   0  0  0  0  0  0
   42.9460    2.6450    9.1320 C   0  0  0  0  0  0
   43.1470    3.9960    9.4200 N   0  0  0  0  0  0
   44.5290    4.4310    9.4440 C   0  0  1  0  0  0
   44.6770    5.9480    9.5470 C   0  0  0  0  0  0
   45.4720    6.6440    8.6140 C   0  0  0  0  0  0
   45.5640    8.0460    8.6930 C   0  0  0  0  0  0
   44.8560    8.7050    9.7160 C   0  0  0  0  0  0
   44.0910    8.0580   10.6170 N   0  0  0  0  0  0
   44.0020    6.7150   10.5260 C   0  0  0  0  0  0
   45.3220    3.6110   10.4870 C   0  0  2  0  0  0
   45.1030    2.0690   10.3680 C   0  0  1  0  0  0
   44.9630    1.6250   11.8030 C   0  0  0  0  0  0
   44.9490    2.6410   12.6580 C   0  0  0  0  0  0
   45.0320    3.9700   11.9670 C   0  0  0  0  0  0
   41.7900    2.2630    8.4250 C   0  0  0  0  0  0
   40.8820    3.1990    8.0570 F   0  0  0  0  0  0
   41.5850    0.9130    8.0910 C   0  0  0  0  0  0
   44.3990   -0.4340    9.4820 H   0  0  0  0  0  0
   42.4420    4.6600    9.1240 H   0  0  0  0  0  0
   44.9310    4.1610    8.4690 H   0  0  0  0  0  0
   46.0000    6.1200    7.8350 H   0  0  0  0  0  0
   46.1620    8.6020    7.9880 H   0  0  0  0  0  0
   44.9020    9.7800    9.8100 H   0  0  0  0  0  0
   43.3430    6.2540   11.2440 H   0  0  0  0  0  0
   46.3850    3.7940   10.3260 H   0  0  0  0  0  0
   45.9880    1.5990    9.9370 H   0  0  0  0  0  0
   44.8550    0.5910   12.0860 H   0  0  0  0  0  0
   44.8220    2.5510   13.7280 H   0  0  0  0  0  0
   44.0630    4.4430   12.1050 H   0  0  0  0  0  0
   45.8010    4.6170   12.3860 H   0  0  0  0  0  0
   40.7010    0.6250    7.5430 H   0  0  0  0  0  0
  1  2  1  0  0  0
  2 21  1  0  0  0
  2  3  2  0  0  0
  3  4  1  0  0  0
  3 22  1  0  0  0
  4 15  1  0  0  0
  4  5  2  0  0  0
  5  6  1  0  0  0
  5 19  1  0  0  0
  6  7  1  0  0  0
  6 23  1  0  0  0
  7  8  1  0  0  0
  7 14  1  0  0  0
  7 24  1  0  0  0
  8 13  1  0  0  0
  8  9  2  0  0  0
  9 10  1  0  0  0
  9 25  1  0  0  0
 10 11  2  0  0  0
 10 26  1  0  0  0
 11 12  1  0  0  0
 11 27  1  0  0  0
 12 13  2  0  0  0
 13 28  1  0  0  0
 14 18  1  0  0  0
 14 15  1  0  0  0
 14 29  1  0  0  0
 15 16  1  0  0  0
 15 30  1  0  0  0
 16 17  2  0  0  0
 16 31  1  0  0  0
 17 18  1  0  0  0
 17 32  1  0  0  0
 18 33  1  0  0  0
 18 34  1  0  0  0
 19 20  1  0  0  0
 19 21  2  0  0  0
 21 35  1  0  0  0
M  END
> <r_pdb_PDB_EXPDTA_TEMPERATURE>
100

> <r_pdb_PDB_RESOLUTION>
2.3

> <s_pdb_PDB_EXPDTA>
X-RAY DIFFRACTION

> <s_pdb_PDB_ID>
7RAD

> <s_pdb_PDB_TITLE>
CRYSTAL STRUCTURE ANALYSIS OF ALDH1B1

> <s_pdb_PDB_format_version>
3.0

$$$$
