7RAD
                    3D
 Schrodinger Suite 2023-4.
 35 38  0  0  1  0            999 V2000
   42.3330   -1.3830    8.1700 F   0  0  0  0  0  0
   42.5110   -0.0810    8.4940 C   0  0  0  0  0  0
   43.6470    0.3120    9.2270 C   0  0  0  0  0  0
   43.8380    1.6700    9.5650 C   0  0  0  0  0  0
   42.8880    2.6300    9.1420 C   0  0  0  0  0  0
   43.0740    3.9880    9.4110 N   0  0  0  0  0  0
   44.4520    4.4300    9.4600 C   0  0  1  0  0  0
   44.5910    5.9480    9.5530 C   0  0  0  0  0  0
   45.4290    6.6380    8.6510 C   0  0  0  0  0  0
   45.5170    8.0400    8.7260 C   0  0  0  0  0  0
   44.7670    8.7040    9.7130 C   0  0  0  0  0  0
   43.9610    8.0620   10.5840 N   0  0  0  0  0  0
   43.8730    6.7190   10.4940 C   0  0  0  0  0  0
   45.2230    3.6320   10.5350 C   0  0  2  0  0  0
   45.0310    2.0860   10.4190 C   0  0  1  0  0  0
   44.8750    1.6490   11.8540 C   0  0  0  0  0  0
   44.8080    2.6690   12.7020 C   0  0  0  0  0  0
   44.8770    3.9960   12.0030 C   0  0  0  0  0  0
   41.7430    2.2310    8.4300 C   0  0  0  0  0  0
   40.8290    3.1550    8.0480 F   0  0  0  0  0  0
   41.5550    0.8750    8.1040 C   0  0  0  0  0  0
   44.3660   -0.4310    9.5390 H   0  0  0  0  0  0
   42.3670    4.6400    9.0930 H   0  0  0  0  0  0
   44.8810    4.1520    8.4980 H   0  0  0  0  0  0
   45.9930    6.1070    7.9020 H   0  0  0  0  0  0
   46.1470    8.5920    8.0460 H   0  0  0  0  0  0
   44.8110    9.7790    9.8070 H   0  0  0  0  0  0
   43.1860    6.2600   11.1880 H   0  0  0  0  0  0
   46.2880    3.8270   10.4080 H   0  0  0  0  0  0
   45.9310    1.6280   10.0040 H   0  0  0  0  0  0
   44.7970    0.6130   12.1430 H   0  0  0  0  0  0
   44.6620    2.5840   13.7690 H   0  0  0  0  0  0
   43.8920    4.4470   12.1040 H   0  0  0  0  0  0
   45.6150    4.6660   12.4410 H   0  0  0  0  0  0
   40.6790    0.5750    7.5520 H   0  0  0  0  0  0
  1  2  1  0  0  0
  2 21  1  0  0  0
  2  3  2  0  0  0
  3  4  1  0  0  0
  3 22  1  0  0  0
  4 15  1  0  0  0
  4  5  2  0  0  0
  5  6  1  0  0  0
  5 19  1  0  0  0
  6  7  1  0  0  0
  6 23  1  0  0  0
  7  8  1  0  0  0
  7 14  1  0  0  0
  7 24  1  0  0  0
  8 13  1  0  0  0
  8  9  2  0  0  0
  9 10  1  0  0  0
  9 25  1  0  0  0
 10 11  2  0  0  0
 10 26  1  0  0  0
 11 12  1  0  0  0
 11 27  1  0  0  0
 12 13  2  0  0  0
 13 28  1  0  0  0
 14 18  1  0  0  0
 14 15  1  0  0  0
 14 29  1  0  0  0
 15 16  1  0  0  0
 15 30  1  0  0  0
 16 17  2  0  0  0
 16 31  1  0  0  0
 17 18  1  0  0  0
 17 32  1  0  0  0
 18 33  1  0  0  0
 18 34  1  0  0  0
 19 20  1  0  0  0
 19 21  2  0  0  0
 21 35  1  0  0  0
M  END
> <r_pdb_PDB_EXPDTA_TEMPERATURE>
100

> <r_pdb_PDB_RESOLUTION>
2.3

> <s_pdb_PDB_EXPDTA>
X-RAY DIFFRACTION

> <s_pdb_PDB_ID>
7RAD

> <s_pdb_PDB_TITLE>
CRYSTAL STRUCTURE ANALYSIS OF ALDH1B1

> <s_pdb_PDB_format_version>
3.0

$$$$
