7RAD
                    3D
 Schrodinger Suite 2023-4.
 35 38  0  0  1  0            999 V2000
   42.3100   -1.3550    8.0650 F   0  0  0  0  0  0
   42.5090   -0.0660    8.4230 C   0  0  0  0  0  0
   43.6920    0.3030    9.0910 C   0  0  0  0  0  0
   43.9010    1.6440    9.4720 C   0  0  0  0  0  0
   42.9210    2.6180    9.1690 C   0  0  0  0  0  0
   43.1250    3.9580    9.5070 N   0  0  0  0  0  0
   44.5020    4.4060    9.4190 C   0  0  1  0  0  0
   44.6490    5.9200    9.5480 C   0  0  0  0  0  0
   45.4360    6.6350    8.6210 C   0  0  0  0  0  0
   45.5240    8.0350    8.7270 C   0  0  0  0  0  0
   44.8230    8.6730    9.7670 C   0  0  0  0  0  0
   44.0660    8.0080   10.6630 N   0  0  0  0  0  0
   43.9800    6.6650   10.5470 C   0  0  0  0  0  0
   45.4020    3.5680   10.3610 C   0  0  2  0  0  0
   45.1490    2.0290   10.2560 C   0  0  1  0  0  0
   45.0450    1.5860   11.6920 C   0  0  0  0  0  0
   45.1400    2.5930   12.5520 C   0  0  0  0  0  0
   45.2960    3.9190   11.8690 C   0  0  0  0  0  0
   41.7340    2.2450    8.5100 C   0  0  0  0  0  0
   40.7950    3.1790    8.2250 F   0  0  0  0  0  0
   41.5280    0.9050    8.1380 C   0  0  0  0  0  0
   44.4330   -0.4490    9.3210 H   0  0  0  0  0  0
   42.3990    4.6200    9.2590 H   0  0  0  0  0  0
   44.8130    4.1700    8.4020 H   0  0  0  0  0  0
   45.9580    6.1260    7.8290 H   0  0  0  0  0  0
   46.1150    8.6060    8.0270 H   0  0  0  0  0  0
   44.8660    9.7460    9.8800 H   0  0  0  0  0  0
   43.3320    6.1840   11.2630 H   0  0  0  0  0  0
   46.4390    3.7460   10.0740 H   0  0  0  0  0  0
   46.0100    1.5390    9.7990 H   0  0  0  0  0  0
   44.8750    0.5600   11.9740 H   0  0  0  0  0  0
   45.0550    2.4980   13.6240 H   0  0  0  0  0  0
   44.4150    4.5060   12.1120 H   0  0  0  0  0  0
   46.1790    4.4500   12.2220 H   0  0  0  0  0  0
   40.6180    0.6220    7.6320 H   0  0  0  0  0  0
  1  2  1  0  0  0
  2 21  1  0  0  0
  2  3  2  0  0  0
  3  4  1  0  0  0
  3 22  1  0  0  0
  4 15  1  0  0  0
  4  5  2  0  0  0
  5  6  1  0  0  0
  5 19  1  0  0  0
  6  7  1  0  0  0
  6 23  1  0  0  0
  7  8  1  0  0  0
  7 14  1  0  0  0
  7 24  1  0  0  0
  8 13  1  0  0  0
  8  9  2  0  0  0
  9 10  1  0  0  0
  9 25  1  0  0  0
 10 11  2  0  0  0
 10 26  1  0  0  0
 11 12  1  0  0  0
 11 27  1  0  0  0
 12 13  2  0  0  0
 13 28  1  0  0  0
 14 18  1  0  0  0
 14 15  1  0  0  0
 14 29  1  0  0  0
 15 16  1  0  0  0
 15 30  1  0  0  0
 16 17  2  0  0  0
 16 31  1  0  0  0
 17 18  1  0  0  0
 17 32  1  0  0  0
 18 33  1  0  0  0
 18 34  1  0  0  0
 19 20  1  0  0  0
 19 21  2  0  0  0
 21 35  1  0  0  0
M  END
> <r_pdb_PDB_EXPDTA_TEMPERATURE>
100

> <r_pdb_PDB_RESOLUTION>
2.3

> <s_pdb_PDB_EXPDTA>
X-RAY DIFFRACTION

> <s_pdb_PDB_ID>
7RAD

> <s_pdb_PDB_TITLE>
CRYSTAL STRUCTURE ANALYSIS OF ALDH1B1

> <s_pdb_PDB_format_version>
3.0

$$$$
