7RAD
                    3D
 Schrodinger Suite 2023-4.
 35 38  0  0  1  0            999 V2000
   42.2730   -1.3810    7.9880 F   0  0  0  0  0  0
   42.4730   -0.0960    8.3630 C   0  0  0  0  0  0
   43.6540    0.2640    9.0410 C   0  0  0  0  0  0
   43.8630    1.6010    9.4380 C   0  0  0  0  0  0
   42.8850    2.5800    9.1420 C   0  0  0  0  0  0
   43.0930    3.9140    9.4940 N   0  0  0  0  0  0
   44.4710    4.3610    9.3960 C   0  0  1  0  0  0
   44.6250    5.8750    9.5310 C   0  0  0  0  0  0
   45.4200    6.5890    8.6100 C   0  0  0  0  0  0
   45.5140    7.9880    8.7190 C   0  0  0  0  0  0
   44.8110    8.6270    9.7570 C   0  0  0  0  0  0
   44.0480    7.9620   10.6490 N   0  0  0  0  0  0
   43.9560    6.6210   10.5290 C   0  0  0  0  0  0
   45.3800    3.5160   10.3250 C   0  0  2  0  0  0
   45.1070    1.9780   10.2300 C   0  0  1  0  0  0
   44.9850    1.5500   11.6690 C   0  0  0  0  0  0
   45.1100    2.5570   12.5230 C   0  0  0  0  0  0
   45.3110    3.8740   11.8330 C   0  0  0  0  0  0
   41.6990    2.2130    8.4760 C   0  0  0  0  0  0
   40.7610    3.1520    8.2030 F   0  0  0  0  0  0
   41.4930    0.8770    8.0860 C   0  0  0  0  0  0
   44.3930   -0.4910    9.2650 H   0  0  0  0  0  0
   42.3690    4.5810    9.2490 H   0  0  0  0  0  0
   44.7720    4.1300    8.3750 H   0  0  0  0  0  0
   45.9440    6.0790    7.8190 H   0  0  0  0  0  0
   46.1110    8.5580    8.0230 H   0  0  0  0  0  0
   44.8580    9.6990    9.8740 H   0  0  0  0  0  0
   43.3050    6.1390   11.2420 H   0  0  0  0  0  0
   46.4130    3.6830   10.0140 H   0  0  0  0  0  0
   45.9680    1.4740    9.7870 H   0  0  0  0  0  0
   44.7830    0.5320   11.9580 H   0  0  0  0  0  0
   45.0220    2.4710   13.5960 H   0  0  0  0  0  0
   44.4630    4.5030   12.0900 H   0  0  0  0  0  0
   46.2240    4.3610   12.1740 H   0  0  0  0  0  0
   40.5870    0.5950    7.5720 H   0  0  0  0  0  0
  1  2  1  0  0  0
  2 21  1  0  0  0
  2  3  2  0  0  0
  3  4  1  0  0  0
  3 22  1  0  0  0
  4 15  1  0  0  0
  4  5  2  0  0  0
  5  6  1  0  0  0
  5 19  1  0  0  0
  6  7  1  0  0  0
  6 23  1  0  0  0
  7  8  1  0  0  0
  7 14  1  0  0  0
  7 24  1  0  0  0
  8 13  1  0  0  0
  8  9  2  0  0  0
  9 10  1  0  0  0
  9 25  1  0  0  0
 10 11  2  0  0  0
 10 26  1  0  0  0
 11 12  1  0  0  0
 11 27  1  0  0  0
 12 13  2  0  0  0
 13 28  1  0  0  0
 14 18  1  0  0  0
 14 15  1  0  0  0
 14 29  1  0  0  0
 15 16  1  0  0  0
 15 30  1  0  0  0
 16 17  2  0  0  0
 16 31  1  0  0  0
 17 18  1  0  0  0
 17 32  1  0  0  0
 18 33  1  0  0  0
 18 34  1  0  0  0
 19 20  1  0  0  0
 19 21  2  0  0  0
 21 35  1  0  0  0
M  END
> <r_pdb_PDB_EXPDTA_TEMPERATURE>
100

> <r_pdb_PDB_RESOLUTION>
2.3

> <s_pdb_PDB_EXPDTA>
X-RAY DIFFRACTION

> <s_pdb_PDB_ID>
7RAD

> <s_pdb_PDB_TITLE>
CRYSTAL STRUCTURE ANALYSIS OF ALDH1B1

> <s_pdb_PDB_format_version>
3.0

$$$$
