7RAD
                    3D
 Schrodinger Suite 2023-4.
 35 38  0  0  1  0            999 V2000
   42.2470   -1.4590    7.8750 F   0  0  0  0  0  0
   42.4700   -0.1860    8.2750 C   0  0  0  0  0  0
   43.7290    0.1760    8.7870 C   0  0  0  0  0  0
   43.9750    1.4980    9.2070 C   0  0  0  0  0  0
   42.9370    2.4590    9.1270 C   0  0  0  0  0  0
   43.1450    3.7740    9.5510 N   0  0  0  0  0  0
   44.4920    4.2760    9.3640 C   0  0  1  0  0  0
   44.6260    5.7670    9.6470 C   0  0  0  0  0  0
   45.2590    6.6080    8.7090 C   0  0  0  0  0  0
   45.3270    7.9900    8.9630 C   0  0  0  0  0  0
   44.7580    8.4800   10.1540 C   0  0  0  0  0  0
   44.1520    7.6890   11.0650 N   0  0  0  0  0  0
   44.0900    6.3640   10.8110 C   0  0  0  0  0  0
   45.5200    3.3770   10.0900 C   0  0  2  0  0  0
   45.3420    1.8620    9.7710 C   0  0  1  0  0  0
   45.5960    1.1880   11.0920 C   0  0  0  0  0  0
   45.7140    2.0560   12.0910 C   0  0  0  0  0  0
   45.5590    3.4800   11.6370 C   0  0  0  0  0  0
   41.6790    2.0950    8.6080 C   0  0  0  0  0  0
   40.6930    3.0190    8.5080 F   0  0  0  0  0  0
   41.4440    0.7750    8.1830 C   0  0  0  0  0  0
   44.5090   -0.5670    8.8590 H   0  0  0  0  0  0
   42.3840    4.4320    9.4200 H   0  0  0  0  0  0
   44.6840    4.1700    8.2980 H   0  0  0  0  0  0
   45.6740    6.2080    7.7970 H   0  0  0  0  0  0
   45.7980    8.6600    8.2600 H   0  0  0  0  0  0
   44.7870    9.5340   10.3830 H   0  0  0  0  0  0
   43.5700    5.7730   11.5500 H   0  0  0  0  0  0
   46.5160    3.6600    9.7450 H   0  0  0  0  0  0
   46.1020    1.5420    9.0560 H   0  0  0  0  0  0
   45.6510    0.1130   11.1920 H   0  0  0  0  0  0
   45.8680    1.7900   13.1240 H   0  0  0  0  0  0
   44.6310    3.8650   12.0570 H   0  0  0  0  0  0
   46.3890    4.0940   11.9850 H   0  0  0  0  0  0
   40.4780    0.4990    7.7900 H   0  0  0  0  0  0
  1  2  1  0  0  0
  2 21  1  0  0  0
  2  3  2  0  0  0
  3  4  1  0  0  0
  3 22  1  0  0  0
  4 15  1  0  0  0
  4  5  2  0  0  0
  5  6  1  0  0  0
  5 19  1  0  0  0
  6  7  1  0  0  0
  6 23  1  0  0  0
  7  8  1  0  0  0
  7 14  1  0  0  0
  7 24  1  0  0  0
  8 13  1  0  0  0
  8  9  2  0  0  0
  9 10  1  0  0  0
  9 25  1  0  0  0
 10 11  2  0  0  0
 10 26  1  0  0  0
 11 12  1  0  0  0
 11 27  1  0  0  0
 12 13  2  0  0  0
 13 28  1  0  0  0
 14 18  1  0  0  0
 14 15  1  0  0  0
 14 29  1  0  0  0
 15 16  1  0  0  0
 15 30  1  0  0  0
 16 17  2  0  0  0
 16 31  1  0  0  0
 17 18  1  0  0  0
 17 32  1  0  0  0
 18 33  1  0  0  0
 18 34  1  0  0  0
 19 20  1  0  0  0
 19 21  2  0  0  0
 21 35  1  0  0  0
M  END
> <r_pdb_PDB_EXPDTA_TEMPERATURE>
100

> <r_pdb_PDB_RESOLUTION>
2.3

> <s_pdb_PDB_EXPDTA>
X-RAY DIFFRACTION

> <s_pdb_PDB_ID>
7RAD

> <s_pdb_PDB_TITLE>
CRYSTAL STRUCTURE ANALYSIS OF ALDH1B1

> <s_pdb_PDB_format_version>
3.0

$$$$
