7RAD
                    3D
 Schrodinger Suite 2023-4.
 35 38  0  0  1  0            999 V2000
   42.3630   -1.3230    8.0490 F   0  0  0  0  0  0
   42.5630   -0.0280    8.3910 C   0  0  0  0  0  0
   43.7430    0.3450    9.0610 C   0  0  0  0  0  0
   43.9490    1.6880    9.4370 C   0  0  0  0  0  0
   42.9690    2.6590    9.1250 C   0  0  0  0  0  0
   43.1670    3.9990    9.4600 N   0  0  0  0  0  0
   44.5440    4.4500    9.3870 C   0  0  1  0  0  0
   44.6870    5.9650    9.5140 C   0  0  0  0  0  0
   45.4840    6.6780    8.5940 C   0  0  0  0  0  0
   45.5700    8.0780    8.6980 C   0  0  0  0  0  0
   44.8580    8.7180    9.7290 C   0  0  0  0  0  0
   44.0910    8.0540   10.6190 N   0  0  0  0  0  0
   44.0080    6.7110   10.5040 C   0  0  0  0  0  0
   45.4350    3.6170   10.3400 C   0  0  2  0  0  0
   45.1910    2.0760   10.2300 C   0  0  1  0  0  0
   45.0800    1.6310   11.6640 C   0  0  0  0  0  0
   45.1540    2.6370   12.5260 C   0  0  0  0  0  0
   45.3050    3.9660   11.8470 C   0  0  0  0  0  0
   41.7860    2.2820    8.4610 C   0  0  0  0  0  0
   40.8470    3.2130    8.1680 F   0  0  0  0  0  0
   41.5830    0.9390    8.0940 C   0  0  0  0  0  0
   44.4830   -0.4050    9.2980 H   0  0  0  0  0  0
   42.4400    4.6600    9.2120 H   0  0  0  0  0  0
   44.8660    4.2140    8.3750 H   0  0  0  0  0  0
   46.0150    6.1660    7.8090 H   0  0  0  0  0  0
   46.1690    8.6480    8.0040 H   0  0  0  0  0  0
   44.9000    9.7910    9.8410 H   0  0  0  0  0  0
   43.3530    6.2310   11.2160 H   0  0  0  0  0  0
   46.4750    3.8000   10.0680 H   0  0  0  0  0  0
   46.0570    1.5920    9.7770 H   0  0  0  0  0  0
   44.9180    0.6040   11.9460 H   0  0  0  0  0  0
   45.0580    2.5390   13.5970 H   0  0  0  0  0  0
   44.4130    4.5430   12.0770 H   0  0  0  0  0  0
   46.1770    4.5050   12.2140 H   0  0  0  0  0  0
   40.6750    0.6530    7.5870 H   0  0  0  0  0  0
  1  2  1  0  0  0
  2 21  1  0  0  0
  2  3  2  0  0  0
  3  4  1  0  0  0
  3 22  1  0  0  0
  4 15  1  0  0  0
  4  5  2  0  0  0
  5  6  1  0  0  0
  5 19  1  0  0  0
  6  7  1  0  0  0
  6 23  1  0  0  0
  7  8  1  0  0  0
  7 14  1  0  0  0
  7 24  1  0  0  0
  8 13  1  0  0  0
  8  9  2  0  0  0
  9 10  1  0  0  0
  9 25  1  0  0  0
 10 11  2  0  0  0
 10 26  1  0  0  0
 11 12  1  0  0  0
 11 27  1  0  0  0
 12 13  2  0  0  0
 13 28  1  0  0  0
 14 18  1  0  0  0
 14 15  1  0  0  0
 14 29  1  0  0  0
 15 16  1  0  0  0
 15 30  1  0  0  0
 16 17  2  0  0  0
 16 31  1  0  0  0
 17 18  1  0  0  0
 17 32  1  0  0  0
 18 33  1  0  0  0
 18 34  1  0  0  0
 19 20  1  0  0  0
 19 21  2  0  0  0
 21 35  1  0  0  0
M  END
> <r_pdb_PDB_EXPDTA_TEMPERATURE>
100

> <r_pdb_PDB_RESOLUTION>
2.3

> <s_pdb_PDB_EXPDTA>
X-RAY DIFFRACTION

> <s_pdb_PDB_ID>
7RAD

> <s_pdb_PDB_TITLE>
CRYSTAL STRUCTURE ANALYSIS OF ALDH1B1

> <s_pdb_PDB_format_version>
3.0

$$$$
