7RAD
                    3D
 Schrodinger Suite 2023-4.
 35 38  0  0  1  0            999 V2000
   42.3040   -1.3480    8.0600 F   0  0  0  0  0  0
   42.5030   -0.0600    8.4220 C   0  0  0  0  0  0
   43.6840    0.3050    9.0960 C   0  0  0  0  0  0
   43.8940    1.6460    9.4790 C   0  0  0  0  0  0
   42.9180    2.6210    9.1730 C   0  0  0  0  0  0
   43.1250    3.9610    9.5110 N   0  0  0  0  0  0
   44.5040    4.4040    9.4220 C   0  0  1  0  0  0
   44.6550    5.9180    9.5480 C   0  0  0  0  0  0
   45.4530    6.6270    8.6250 C   0  0  0  0  0  0
   45.5440    8.0270    8.7250 C   0  0  0  0  0  0
   44.8360    8.6710    9.7570 C   0  0  0  0  0  0
   44.0700    8.0120   10.6500 N   0  0  0  0  0  0
   43.9810    6.6690   10.5380 C   0  0  0  0  0  0
   45.4010    3.5650   10.3670 C   0  0  2  0  0  0
   45.1380    2.0270   10.2710 C   0  0  1  0  0  0
   45.0180    1.5950   11.7090 C   0  0  0  0  0  0
   45.1210    2.6050   12.5630 C   0  0  0  0  0  0
   45.3020    3.9250   11.8730 C   0  0  0  0  0  0
   41.7330    2.2530    8.5080 C   0  0  0  0  0  0
   40.7970    3.1890    8.2200 F   0  0  0  0  0  0
   41.5250    0.9120    8.1340 C   0  0  0  0  0  0
   44.4220   -0.4490    9.3270 H   0  0  0  0  0  0
   42.4020    4.6240    9.2580 H   0  0  0  0  0  0
   44.8140    4.1650    8.4060 H   0  0  0  0  0  0
   45.9800    6.1120    7.8400 H   0  0  0  0  0  0
   46.1430    8.5940    8.0280 H   0  0  0  0  0  0
   44.8810    9.7450    9.8670 H   0  0  0  0  0  0
   43.3260    6.1920   11.2520 H   0  0  0  0  0  0
   46.4390    3.7350   10.0750 H   0  0  0  0  0  0
   45.9990    1.5270    9.8250 H   0  0  0  0  0  0
   44.8310    0.5740   11.9970 H   0  0  0  0  0  0
   45.0280    2.5180   13.6350 H   0  0  0  0  0  0
   44.4340    4.5320   12.1140 H   0  0  0  0  0  0
   46.1960    4.4370   12.2250 H   0  0  0  0  0  0
   40.6170    0.6330    7.6230 H   0  0  0  0  0  0
  1  2  1  0  0  0
  2 21  1  0  0  0
  2  3  2  0  0  0
  3  4  1  0  0  0
  3 22  1  0  0  0
  4 15  1  0  0  0
  4  5  2  0  0  0
  5  6  1  0  0  0
  5 19  1  0  0  0
  6  7  1  0  0  0
  6 23  1  0  0  0
  7  8  1  0  0  0
  7 14  1  0  0  0
  7 24  1  0  0  0
  8 13  1  0  0  0
  8  9  2  0  0  0
  9 10  1  0  0  0
  9 25  1  0  0  0
 10 11  2  0  0  0
 10 26  1  0  0  0
 11 12  1  0  0  0
 11 27  1  0  0  0
 12 13  2  0  0  0
 13 28  1  0  0  0
 14 18  1  0  0  0
 14 15  1  0  0  0
 14 29  1  0  0  0
 15 16  1  0  0  0
 15 30  1  0  0  0
 16 17  2  0  0  0
 16 31  1  0  0  0
 17 18  1  0  0  0
 17 32  1  0  0  0
 18 33  1  0  0  0
 18 34  1  0  0  0
 19 20  1  0  0  0
 19 21  2  0  0  0
 21 35  1  0  0  0
M  END
> <r_pdb_PDB_EXPDTA_TEMPERATURE>
100

> <r_pdb_PDB_RESOLUTION>
2.3

> <s_pdb_PDB_EXPDTA>
X-RAY DIFFRACTION

> <s_pdb_PDB_ID>
7RAD

> <s_pdb_PDB_TITLE>
CRYSTAL STRUCTURE ANALYSIS OF ALDH1B1

> <s_pdb_PDB_format_version>
3.0

$$$$
