7RAD
                    3D
 Schrodinger Suite 2023-4.
 35 38  0  0  1  0            999 V2000
   42.2910   -1.3300    8.0640 F   0  0  0  0  0  0
   42.4970   -0.0420    8.4200 C   0  0  0  0  0  0
   43.6780    0.3190    9.0970 C   0  0  0  0  0  0
   43.8950    1.6580    9.4770 C   0  0  0  0  0  0
   42.9270    2.6410    9.1630 C   0  0  0  0  0  0
   43.1400    3.9760    9.5040 N   0  0  0  0  0  0
   44.5220    4.4140    9.4250 C   0  0  1  0  0  0
   44.6800    5.9270    9.5570 C   0  0  0  0  0  0
   45.5010    6.6330    8.6530 C   0  0  0  0  0  0
   45.6020    8.0330    8.7620 C   0  0  0  0  0  0
   44.8790    8.6780    9.7820 C   0  0  0  0  0  0
   44.0900    8.0210   10.6560 N   0  0  0  0  0  0
   43.9930    6.6800   10.5370 C   0  0  0  0  0  0
   45.4130    3.5690   10.3700 C   0  0  2  0  0  0
   45.1360    2.0330   10.2760 C   0  0  1  0  0  0
   44.9980    1.6060   11.7130 C   0  0  0  0  0  0
   45.1100    2.6160   12.5660 C   0  0  0  0  0  0
   45.3190    3.9320   11.8770 C   0  0  0  0  0  0
   41.7420    2.2760    8.4930 C   0  0  0  0  0  0
   40.8140    3.2180    8.1970 F   0  0  0  0  0  0
   41.5280    0.9370    8.1230 C   0  0  0  0  0  0
   44.4100   -0.4400    9.3340 H   0  0  0  0  0  0
   42.4220    4.6450    9.2490 H   0  0  0  0  0  0
   44.8350    4.1780    8.4090 H   0  0  0  0  0  0
   46.0410    6.1180    7.8770 H   0  0  0  0  0  0
   46.2210    8.5970    8.0800 H   0  0  0  0  0  0
   44.9330    9.7500    9.8990 H   0  0  0  0  0  0
   43.3240    6.2030   11.2380 H   0  0  0  0  0  0
   46.4510    3.7340   10.0770 H   0  0  0  0  0  0
   45.9970    1.5230    9.8410 H   0  0  0  0  0  0
   44.7900    0.5900   12.0030 H   0  0  0  0  0  0
   45.0030    2.5320   13.6370 H   0  0  0  0  0  0
   44.4660    4.5600   12.1170 H   0  0  0  0  0  0
   46.2260    4.4180   12.2340 H   0  0  0  0  0  0
   40.6210    0.6600    7.6080 H   0  0  0  0  0  0
  1  2  1  0  0  0
  2 21  1  0  0  0
  2  3  2  0  0  0
  3  4  1  0  0  0
  3 22  1  0  0  0
  4 15  1  0  0  0
  4  5  2  0  0  0
  5  6  1  0  0  0
  5 19  1  0  0  0
  6  7  1  0  0  0
  6 23  1  0  0  0
  7  8  1  0  0  0
  7 14  1  0  0  0
  7 24  1  0  0  0
  8 13  1  0  0  0
  8  9  2  0  0  0
  9 10  1  0  0  0
  9 25  1  0  0  0
 10 11  2  0  0  0
 10 26  1  0  0  0
 11 12  1  0  0  0
 11 27  1  0  0  0
 12 13  2  0  0  0
 13 28  1  0  0  0
 14 18  1  0  0  0
 14 15  1  0  0  0
 14 29  1  0  0  0
 15 16  1  0  0  0
 15 30  1  0  0  0
 16 17  2  0  0  0
 16 31  1  0  0  0
 17 18  1  0  0  0
 17 32  1  0  0  0
 18 33  1  0  0  0
 18 34  1  0  0  0
 19 20  1  0  0  0
 19 21  2  0  0  0
 21 35  1  0  0  0
M  END
> <r_pdb_PDB_EXPDTA_TEMPERATURE>
100

> <r_pdb_PDB_RESOLUTION>
2.3

> <s_pdb_PDB_EXPDTA>
X-RAY DIFFRACTION

> <s_pdb_PDB_ID>
7RAD

> <s_pdb_PDB_TITLE>
CRYSTAL STRUCTURE ANALYSIS OF ALDH1B1

> <s_pdb_PDB_format_version>
3.0

$$$$
