7RAD
                    3D
 Schrodinger Suite 2023-4.
 35 38  0  0  1  0            999 V2000
   42.3330   -1.3510    8.1210 F   0  0  0  0  0  0
   42.5280   -0.0550    8.4540 C   0  0  0  0  0  0
   43.6800    0.3230    9.1690 C   0  0  0  0  0  0
   43.8870    1.6740    9.5180 C   0  0  0  0  0  0
   42.9350    2.6470    9.1300 C   0  0  0  0  0  0
   43.1360    3.9970    9.4210 N   0  0  0  0  0  0
   44.5180    4.4340    9.4310 C   0  0  1  0  0  0
   44.6670    5.9510    9.5380 C   0  0  0  0  0  0
   45.4700    6.6480    8.6110 C   0  0  0  0  0  0
   45.5620    8.0500    8.6950 C   0  0  0  0  0  0
   44.8490    8.7060    9.7150 C   0  0  0  0  0  0
   44.0770    8.0590   10.6100 N   0  0  0  0  0  0
   43.9860    6.7150   10.5130 C   0  0  0  0  0  0
   45.3240    3.6140   10.4640 C   0  0  2  0  0  0
   45.1030    2.0720   10.3480 C   0  0  1  0  0  0
   44.9670    1.6280   11.7830 C   0  0  0  0  0  0
   44.9630    2.6440   12.6390 C   0  0  0  0  0  0
   45.0530    3.9730   11.9480 C   0  0  0  0  0  0
   41.7750    2.2640    8.4310 C   0  0  0  0  0  0
   40.8620    3.1990    8.0730 F   0  0  0  0  0  0
   41.5720    0.9150    8.0930 C   0  0  0  0  0  0
   44.4000   -0.4300    9.4580 H   0  0  0  0  0  0
   42.4280    4.6610    9.1300 H   0  0  0  0  0  0
   44.9100    4.1680    8.4510 H   0  0  0  0  0  0
   46.0020    6.1250    7.8360 H   0  0  0  0  0  0
   46.1670    8.6070    7.9960 H   0  0  0  0  0  0
   44.8960    9.7810    9.8130 H   0  0  0  0  0  0
   43.3230    6.2520   11.2270 H   0  0  0  0  0  0
   46.3850    3.7960   10.2890 H   0  0  0  0  0  0
   45.9860    1.6000    9.9140 H   0  0  0  0  0  0
   44.8560    0.5950   12.0670 H   0  0  0  0  0  0
   44.8410    2.5540   13.7080 H   0  0  0  0  0  0
   44.0930    4.4590   12.0960 H   0  0  0  0  0  0
   45.8340    4.6100   12.3590 H   0  0  0  0  0  0
   40.6840    0.6260    7.5520 H   0  0  0  0  0  0
  1  2  1  0  0  0
  2 21  1  0  0  0
  2  3  2  0  0  0
  3  4  1  0  0  0
  3 22  1  0  0  0
  4 15  1  0  0  0
  4  5  2  0  0  0
  5  6  1  0  0  0
  5 19  1  0  0  0
  6  7  1  0  0  0
  6 23  1  0  0  0
  7  8  1  0  0  0
  7 14  1  0  0  0
  7 24  1  0  0  0
  8 13  1  0  0  0
  8  9  2  0  0  0
  9 10  1  0  0  0
  9 25  1  0  0  0
 10 11  2  0  0  0
 10 26  1  0  0  0
 11 12  1  0  0  0
 11 27  1  0  0  0
 12 13  2  0  0  0
 13 28  1  0  0  0
 14 18  1  0  0  0
 14 15  1  0  0  0
 14 29  1  0  0  0
 15 16  1  0  0  0
 15 30  1  0  0  0
 16 17  2  0  0  0
 16 31  1  0  0  0
 17 18  1  0  0  0
 17 32  1  0  0  0
 18 33  1  0  0  0
 18 34  1  0  0  0
 19 20  1  0  0  0
 19 21  2  0  0  0
 21 35  1  0  0  0
M  END
> <r_pdb_PDB_EXPDTA_TEMPERATURE>
100

> <r_pdb_PDB_RESOLUTION>
2.3

> <s_pdb_PDB_EXPDTA>
X-RAY DIFFRACTION

> <s_pdb_PDB_ID>
7RAD

> <s_pdb_PDB_TITLE>
CRYSTAL STRUCTURE ANALYSIS OF ALDH1B1

> <s_pdb_PDB_format_version>
3.0

$$$$
