7RAD
                    3D
 Schrodinger Suite 2023-4.
 35 38  0  0  1  0            999 V2000
   42.3380   -1.3400    8.0740 F   0  0  0  0  0  0
   42.5330   -0.0510    8.4350 C   0  0  0  0  0  0
   43.7150    0.3190    9.1040 C   0  0  0  0  0  0
   43.9200    1.6590    9.4890 C   0  0  0  0  0  0
   42.9390    2.6330    9.1900 C   0  0  0  0  0  0
   43.1400    3.9700    9.5310 N   0  0  0  0  0  0
   44.5170    4.4200    9.4320 C   0  0  1  0  0  0
   44.6640    5.9340    9.5560 C   0  0  0  0  0  0
   45.4620    6.6440    8.6340 C   0  0  0  0  0  0
   45.5500    8.0440    8.7340 C   0  0  0  0  0  0
   44.8380    8.6870    9.7640 C   0  0  0  0  0  0
   44.0720    8.0260   10.6550 N   0  0  0  0  0  0
   43.9860    6.6840   10.5440 C   0  0  0  0  0  0
   45.4250    3.5840   10.3700 C   0  0  2  0  0  0
   45.1640    2.0450   10.2780 C   0  0  1  0  0  0
   45.0450    1.6160   11.7170 C   0  0  0  0  0  0
   45.1510    2.6280   12.5690 C   0  0  0  0  0  0
   45.3380    3.9460   11.8760 C   0  0  0  0  0  0
   41.7520    2.2580    8.5300 C   0  0  0  0  0  0
   40.8100    3.1900    8.2500 F   0  0  0  0  0  0
   41.5510    0.9180    8.1520 C   0  0  0  0  0  0
   44.4580   -0.4320    9.3320 H   0  0  0  0  0  0
   42.4130    4.6310    9.2800 H   0  0  0  0  0  0
   44.8200    4.1820    8.4140 H   0  0  0  0  0  0
   45.9920    6.1300    7.8500 H   0  0  0  0  0  0
   46.1500    8.6120    8.0390 H   0  0  0  0  0  0
   44.8820    9.7610    9.8740 H   0  0  0  0  0  0
   43.3310    6.2050   11.2570 H   0  0  0  0  0  0
   46.4590    3.7580   10.0690 H   0  0  0  0  0  0
   46.0270    1.5450    9.8340 H   0  0  0  0  0  0
   44.8540    0.5970   12.0070 H   0  0  0  0  0  0
   45.0570    2.5430   13.6400 H   0  0  0  0  0  0
   44.4770    4.5620   12.1220 H   0  0  0  0  0  0
   46.2390    4.4500   12.2230 H   0  0  0  0  0  0
   40.6420    0.6350    7.6430 H   0  0  0  0  0  0
  1  2  1  0  0  0
  2 21  1  0  0  0
  2  3  2  0  0  0
  3  4  1  0  0  0
  3 22  1  0  0  0
  4 15  1  0  0  0
  4  5  2  0  0  0
  5  6  1  0  0  0
  5 19  1  0  0  0
  6  7  1  0  0  0
  6 23  1  0  0  0
  7  8  1  0  0  0
  7 14  1  0  0  0
  7 24  1  0  0  0
  8 13  1  0  0  0
  8  9  2  0  0  0
  9 10  1  0  0  0
  9 25  1  0  0  0
 10 11  2  0  0  0
 10 26  1  0  0  0
 11 12  1  0  0  0
 11 27  1  0  0  0
 12 13  2  0  0  0
 13 28  1  0  0  0
 14 18  1  0  0  0
 14 15  1  0  0  0
 14 29  1  0  0  0
 15 16  1  0  0  0
 15 30  1  0  0  0
 16 17  2  0  0  0
 16 31  1  0  0  0
 17 18  1  0  0  0
 17 32  1  0  0  0
 18 33  1  0  0  0
 18 34  1  0  0  0
 19 20  1  0  0  0
 19 21  2  0  0  0
 21 35  1  0  0  0
M  END
> <r_pdb_PDB_EXPDTA_TEMPERATURE>
100

> <r_pdb_PDB_RESOLUTION>
2.3

> <s_pdb_PDB_EXPDTA>
X-RAY DIFFRACTION

> <s_pdb_PDB_ID>
7RAD

> <s_pdb_PDB_TITLE>
CRYSTAL STRUCTURE ANALYSIS OF ALDH1B1

> <s_pdb_PDB_format_version>
3.0

$$$$
