protein_170_ligand
                    3D
 Schrodinger Suite 2024-1.
 36 39  0  0  1  0            999 V2000
   42.5147   -1.3111    7.7685 F   0  0  0  0  0  0
   42.6536   -0.0466    8.2323 C   0  0  0  0  0  0
   43.8210    0.3196    8.9299 C   0  0  0  0  0  0
   43.9860    1.6441    9.3862 C   0  0  0  0  0  0
   42.9751    2.6018    9.1330 C   0  0  0  0  0  0
   43.1634    3.9354    9.5062 N   0  0  0  0  0  0
   44.5334    4.3835    9.3260 C   0  0  1  0  0  0
   44.6997    5.8984    9.3683 C   0  0  0  0  0  0
   45.4210    6.5512    8.3426 C   0  0  0  0  0  0
   45.5402    7.9556    8.3559 C   0  0  0  0  0  0
   44.9367    8.6855    9.3990 C   0  0  0  0  0  0
   44.2522    8.0325   10.3636 N   0  3  0  0  0  0
   44.1136    6.6882   10.3828 C   0  0  0  0  0  0
   45.4737    3.5831   10.2595 C   0  0  2  0  0  0
   45.2372    2.0407   10.1639 C   0  0  1  0  0  0
   45.1565    1.6038   11.6024 C   0  0  0  0  0  0
   45.2495    2.6128   12.4591 C   0  0  0  0  0  0
   45.3816    3.9394   11.7700 C   0  0  0  0  0  0
   41.7988    2.2270    8.4558 C   0  0  0  0  0  0
   40.8432    3.1515    8.1989 F   0  0  0  0  0  0
   41.6353    0.9014    8.0121 C   0  0  0  0  0  0
   44.5903   -0.4173    9.1098 H   0  0  0  0  0  0
   42.4123    4.5985    9.3191 H   0  0  0  0  0  0
   44.7964    4.0990    8.3053 H   0  0  0  0  0  0
   45.8730    5.9849    7.5407 H   0  0  0  0  0  0
   46.0884    8.4629    7.5741 H   0  0  0  0  0  0
   44.9771    9.7623    9.4856 H   0  0  0  0  0  0
   43.5164    6.2887   11.1887 H   0  0  0  0  0  0
   46.5025    3.7754    9.9502 H   0  0  0  0  0  0
   46.1016    1.5619    9.7009 H   0  0  0  0  0  0
   45.0206    0.5737   11.8856 H   0  0  0  0  0  0
   45.1940    2.5252   13.5346 H   0  0  0  0  0  0
   46.2616    4.4773   12.1235 H   0  0  0  0  0  0
   44.4939    4.5155   12.0196 H   0  0  0  0  0  0
   40.7386    0.6205    7.4796 H   0  0  0  0  0  0
   43.8186    8.5793   11.1084 H   0  0  0  0  0  0
  1  2  1  0  0  0
  2 21  1  0  0  0
  2  3  2  0  0  0
  3  4  1  0  0  0
  3 22  1  0  0  0
  4 15  1  0  0  0
  4  5  2  0  0  0
  5  6  1  0  0  0
  5 19  1  0  0  0
  6  7  1  0  0  0
  6 23  1  0  0  0
  7  8  1  0  0  0
  7 14  1  0  0  0
  7 24  1  0  0  0
  8 13  1  0  0  0
  8  9  2  0  0  0
  9 10  1  0  0  0
  9 25  1  0  0  0
 10 11  2  0  0  0
 10 26  1  0  0  0
 11 12  1  0  0  0
 11 27  1  0  0  0
 12 13  2  0  0  0
 12 36  1  0  0  0
 13 28  1  0  0  0
 14 18  1  0  0  0
 14 15  1  0  0  0
 14 29  1  0  0  0
 15 16  1  0  0  0
 15 30  1  0  0  0
 16 17  2  0  0  0
 16 31  1  0  0  0
 17 18  1  0  0  0
 17 32  1  0  0  0
 18 33  1  0  0  0
 18 34  1  0  0  0
 19 20  1  0  0  0
 19 21  2  0  0  0
 21 35  1  0  0  0
M  CHG  1  12   1
M  END
> <Tot Q>
1

> <flags>
0

> <Source File Index>
1

> <stars>
0

> <subgroup collapsed>
0

> <Ionization Penalty>
1.5065

> <State Penalty>
1.5065

> <docking score>
-7.70664

> <glide emodel>
-60.4505

> <glide gscore>
-9.21314

> <PDB EXPDTA TEMPERATURE>
100

> <PDB RESOLUTION>
2.3

> <Source File>
glide-dock_SP_170_pv.maegz

> <Source Path>
C:\Users\yujie\Desktop\1b1\mutation\glide-dock_SP_170

> <entry id>
26

> <job name>
glide-dock_SP_170

> <subgroup title>
glide-dock_SP_170_pv

> <subgroupid>
glide-dock_SP_170_pv

> <PDB EXPDTA>
X-RAY DIFFRACTION

> <PDB ID>
7RAD

> <PDB TITLE>
CRYSTAL STRUCTURE ANALYSIS OF ALDH1B1

$$$$
