7RAD
                    3D
 Schrodinger Suite 2023-4.
 35 38  0  0  1  0            999 V2000
   42.3200   -1.3380    8.0400 F   0  0  0  0  0  0
   42.5170   -0.0490    8.4030 C   0  0  0  0  0  0
   43.6970    0.3170    9.0760 C   0  0  0  0  0  0
   43.9050    1.6570    9.4630 C   0  0  0  0  0  0
   42.9250    2.6320    9.1600 C   0  0  0  0  0  0
   43.1280    3.9690    9.5030 N   0  0  0  0  0  0
   44.5060    4.4180    9.4130 C   0  0  1  0  0  0
   44.6540    5.9320    9.5420 C   0  0  0  0  0  0
   45.4500    6.6450    8.6210 C   0  0  0  0  0  0
   45.5410    8.0450    8.7270 C   0  0  0  0  0  0
   44.8330    8.6840    9.7620 C   0  0  0  0  0  0
   44.0680    8.0200   10.6520 N   0  0  0  0  0  0
   43.9800    6.6790   10.5360 C   0  0  0  0  0  0
   45.4070    3.5790   10.3530 C   0  0  2  0  0  0
   45.1500    2.0400   10.2520 C   0  0  1  0  0  0
   45.0370    1.6040   11.6890 C   0  0  0  0  0  0
   45.1360    2.6120   12.5460 C   0  0  0  0  0  0
   45.3100    3.9340   11.8600 C   0  0  0  0  0  0
   41.7400    2.2600    8.4960 C   0  0  0  0  0  0
   40.8000    3.1940    8.2120 F   0  0  0  0  0  0
   41.5360    0.9200    8.1190 C   0  0  0  0  0  0
   44.4380   -0.4350    9.3050 H   0  0  0  0  0  0
   42.4030    4.6320    9.2550 H   0  0  0  0  0  0
   44.8140    4.1830    8.3950 H   0  0  0  0  0  0
   45.9770    6.1340    7.8330 H   0  0  0  0  0  0
   46.1390    8.6140    8.0320 H   0  0  0  0  0  0
   44.8780    9.7570    9.8760 H   0  0  0  0  0  0
   43.3270    6.1980   11.2480 H   0  0  0  0  0  0
   46.4440    3.7540   10.0600 H   0  0  0  0  0  0
   46.0120    1.5450    9.8020 H   0  0  0  0  0  0
   44.8560    0.5810   11.9750 H   0  0  0  0  0  0
   45.0450    2.5200   13.6170 H   0  0  0  0  0  0
   44.4390    4.5360   12.1050 H   0  0  0  0  0  0
   46.2020    4.4500   12.2120 H   0  0  0  0  0  0
   40.6280    0.6390    7.6080 H   0  0  0  0  0  0
  1  2  1  0  0  0
  2 21  1  0  0  0
  2  3  2  0  0  0
  3  4  1  0  0  0
  3 22  1  0  0  0
  4 15  1  0  0  0
  4  5  2  0  0  0
  5  6  1  0  0  0
  5 19  1  0  0  0
  6  7  1  0  0  0
  6 23  1  0  0  0
  7  8  1  0  0  0
  7 14  1  0  0  0
  7 24  1  0  0  0
  8 13  1  0  0  0
  8  9  2  0  0  0
  9 10  1  0  0  0
  9 25  1  0  0  0
 10 11  2  0  0  0
 10 26  1  0  0  0
 11 12  1  0  0  0
 11 27  1  0  0  0
 12 13  2  0  0  0
 13 28  1  0  0  0
 14 18  1  0  0  0
 14 15  1  0  0  0
 14 29  1  0  0  0
 15 16  1  0  0  0
 15 30  1  0  0  0
 16 17  2  0  0  0
 16 31  1  0  0  0
 17 18  1  0  0  0
 17 32  1  0  0  0
 18 33  1  0  0  0
 18 34  1  0  0  0
 19 20  1  0  0  0
 19 21  2  0  0  0
 21 35  1  0  0  0
M  END
> <r_pdb_PDB_EXPDTA_TEMPERATURE>
100

> <r_pdb_PDB_RESOLUTION>
2.3

> <s_pdb_PDB_EXPDTA>
X-RAY DIFFRACTION

> <s_pdb_PDB_ID>
7RAD

> <s_pdb_PDB_TITLE>
CRYSTAL STRUCTURE ANALYSIS OF ALDH1B1

> <s_pdb_PDB_format_version>
3.0

$$$$
