7RAD
                    3D
 Schrodinger Suite 2023-4.
 35 38  0  0  1  0            999 V2000
   42.3260   -1.3430    8.0930 F   0  0  0  0  0  0
   42.5220   -0.0510    8.4480 C   0  0  0  0  0  0
   43.6990    0.3190    9.1230 C   0  0  0  0  0  0
   43.9060    1.6630    9.4990 C   0  0  0  0  0  0
   42.9280    2.6340    9.1820 C   0  0  0  0  0  0
   43.1310    3.9750    9.5140 N   0  0  0  0  0  0
   44.5070    4.4220    9.4250 C   0  0  1  0  0  0
   44.6550    5.9380    9.5390 C   0  0  0  0  0  0
   45.4440    6.6440    8.6070 C   0  0  0  0  0  0
   45.5340    8.0450    8.6990 C   0  0  0  0  0  0
   44.8300    8.6930    9.7310 C   0  0  0  0  0  0
   44.0700    8.0370   10.6320 N   0  0  0  0  0  0
   43.9840    6.6940   10.5290 C   0  0  0  0  0  0
   45.4040    3.5940   10.3790 C   0  0  2  0  0  0
   45.1490    2.0540   10.2880 C   0  0  1  0  0  0
   45.0380    1.6270   11.7290 C   0  0  0  0  0  0
   45.1320    2.6410   12.5790 C   0  0  0  0  0  0
   45.2910    3.9610   11.8830 C   0  0  0  0  0  0
   41.7480    2.2590    8.5150 C   0  0  0  0  0  0
   40.8110    3.1910    8.2160 F   0  0  0  0  0  0
   41.5430    0.9160    8.1490 C   0  0  0  0  0  0
   44.4400   -0.4310    9.3600 H   0  0  0  0  0  0
   42.4060    4.6360    9.2550 H   0  0  0  0  0  0
   44.8210    4.1770    8.4120 H   0  0  0  0  0  0
   45.9700    6.1260    7.8220 H   0  0  0  0  0  0
   46.1300    8.6080    7.9970 H   0  0  0  0  0  0
   44.8760    9.7670    9.8360 H   0  0  0  0  0  0
   43.3340    6.2200   11.2480 H   0  0  0  0  0  0
   46.4420    3.7700   10.0940 H   0  0  0  0  0  0
   46.0120    1.5580    9.8430 H   0  0  0  0  0  0
   44.8640    0.6040   12.0220 H   0  0  0  0  0  0
   45.0430    2.5590   13.6520 H   0  0  0  0  0  0
   44.4080    4.5490   12.1160 H   0  0  0  0  0  0
   46.1720    4.4960   12.2350 H   0  0  0  0  0  0
   40.6380    0.6300    7.6360 H   0  0  0  0  0  0
  1  2  1  0  0  0
  2 21  1  0  0  0
  2  3  2  0  0  0
  3  4  1  0  0  0
  3 22  1  0  0  0
  4 15  1  0  0  0
  4  5  2  0  0  0
  5  6  1  0  0  0
  5 19  1  0  0  0
  6  7  1  0  0  0
  6 23  1  0  0  0
  7  8  1  0  0  0
  7 14  1  0  0  0
  7 24  1  0  0  0
  8 13  1  0  0  0
  8  9  2  0  0  0
  9 10  1  0  0  0
  9 25  1  0  0  0
 10 11  2  0  0  0
 10 26  1  0  0  0
 11 12  1  0  0  0
 11 27  1  0  0  0
 12 13  2  0  0  0
 13 28  1  0  0  0
 14 18  1  0  0  0
 14 15  1  0  0  0
 14 29  1  0  0  0
 15 16  1  0  0  0
 15 30  1  0  0  0
 16 17  2  0  0  0
 16 31  1  0  0  0
 17 18  1  0  0  0
 17 32  1  0  0  0
 18 33  1  0  0  0
 18 34  1  0  0  0
 19 20  1  0  0  0
 19 21  2  0  0  0
 21 35  1  0  0  0
M  END
> <r_pdb_PDB_EXPDTA_TEMPERATURE>
100

> <r_pdb_PDB_RESOLUTION>
2.3

> <s_pdb_PDB_EXPDTA>
X-RAY DIFFRACTION

> <s_pdb_PDB_ID>
7RAD

> <s_pdb_PDB_TITLE>
CRYSTAL STRUCTURE ANALYSIS OF ALDH1B1

> <s_pdb_PDB_format_version>
3.0

$$$$
