7RAD
                    3D
 Schrodinger Suite 2023-4.
 35 38  0  0  1  0            999 V2000
   42.3220   -1.3370    8.0470 F   0  0  0  0  0  0
   42.5180   -0.0480    8.4100 C   0  0  0  0  0  0
   43.7000    0.3180    9.0820 C   0  0  0  0  0  0
   43.9070    1.6580    9.4670 C   0  0  0  0  0  0
   42.9300    2.6320    9.1650 C   0  0  0  0  0  0
   43.1340    3.9710    9.5060 N   0  0  0  0  0  0
   44.5120    4.4180    9.4140 C   0  0  1  0  0  0
   44.6620    5.9310    9.5410 C   0  0  0  0  0  0
   45.4620    6.6410    8.6210 C   0  0  0  0  0  0
   45.5550    8.0410    8.7240 C   0  0  0  0  0  0
   44.8450    8.6840    9.7550 C   0  0  0  0  0  0
   44.0760    8.0230   10.6450 N   0  0  0  0  0  0
   43.9860    6.6820   10.5310 C   0  0  0  0  0  0
   45.4150    3.5800   10.3530 C   0  0  2  0  0  0
   45.1530    2.0410   10.2580 C   0  0  1  0  0  0
   45.0350    1.6090   11.6950 C   0  0  0  0  0  0
   45.1400    2.6190   12.5500 C   0  0  0  0  0  0
   45.3230    3.9390   11.8600 C   0  0  0  0  0  0
   41.7430    2.2620    8.5010 C   0  0  0  0  0  0
   40.8050    3.1960    8.2170 F   0  0  0  0  0  0
   41.5390    0.9210    8.1250 C   0  0  0  0  0  0
   44.4400   -0.4350    9.3110 H   0  0  0  0  0  0
   42.4090    4.6340    9.2580 H   0  0  0  0  0  0
   44.8180    4.1810    8.3960 H   0  0  0  0  0  0
   45.9910    6.1280    7.8360 H   0  0  0  0  0  0
   46.1570    8.6090    8.0300 H   0  0  0  0  0  0
   44.8910    9.7570    9.8670 H   0  0  0  0  0  0
   43.3310    6.2030   11.2430 H   0  0  0  0  0  0
   46.4510    3.7520   10.0570 H   0  0  0  0  0  0
   46.0140    1.5420    9.8110 H   0  0  0  0  0  0
   44.8460    0.5880   11.9840 H   0  0  0  0  0  0
   45.0470    2.5310   13.6210 H   0  0  0  0  0  0
   44.4570    4.5490   12.1050 H   0  0  0  0  0  0
   46.2200    4.4480   12.2090 H   0  0  0  0  0  0
   40.6300    0.6410    7.6160 H   0  0  0  0  0  0
  1  2  1  0  0  0
  2 21  1  0  0  0
  2  3  2  0  0  0
  3  4  1  0  0  0
  3 22  1  0  0  0
  4 15  1  0  0  0
  4  5  2  0  0  0
  5  6  1  0  0  0
  5 19  1  0  0  0
  6  7  1  0  0  0
  6 23  1  0  0  0
  7  8  1  0  0  0
  7 14  1  0  0  0
  7 24  1  0  0  0
  8 13  1  0  0  0
  8  9  2  0  0  0
  9 10  1  0  0  0
  9 25  1  0  0  0
 10 11  2  0  0  0
 10 26  1  0  0  0
 11 12  1  0  0  0
 11 27  1  0  0  0
 12 13  2  0  0  0
 13 28  1  0  0  0
 14 18  1  0  0  0
 14 15  1  0  0  0
 14 29  1  0  0  0
 15 16  1  0  0  0
 15 30  1  0  0  0
 16 17  2  0  0  0
 16 31  1  0  0  0
 17 18  1  0  0  0
 17 32  1  0  0  0
 18 33  1  0  0  0
 18 34  1  0  0  0
 19 20  1  0  0  0
 19 21  2  0  0  0
 21 35  1  0  0  0
M  END
> <r_pdb_PDB_EXPDTA_TEMPERATURE>
100

> <r_pdb_PDB_RESOLUTION>
2.3

> <s_pdb_PDB_EXPDTA>
X-RAY DIFFRACTION

> <s_pdb_PDB_ID>
7RAD

> <s_pdb_PDB_TITLE>
CRYSTAL STRUCTURE ANALYSIS OF ALDH1B1

> <s_pdb_PDB_format_version>
3.0

$$$$
