7RAD
                    3D
 Schrodinger Suite 2023-4.
 35 38  0  0  1  0            999 V2000
   42.3230   -1.3510    8.0540 F   0  0  0  0  0  0
   42.5190   -0.0600    8.4120 C   0  0  0  0  0  0
   43.6850    0.3040    9.1100 C   0  0  0  0  0  0
   43.8930    1.6470    9.4890 C   0  0  0  0  0  0
   42.9280    2.6250    9.1510 C   0  0  0  0  0  0
   43.1300    3.9650    9.4820 N   0  0  0  0  0  0
   44.5120    4.4050    9.4440 C   0  0  1  0  0  0
   44.6600    5.9200    9.5650 C   0  0  0  0  0  0
   45.4570    6.6280    8.6410 C   0  0  0  0  0  0
   45.5420    8.0290    8.7330 C   0  0  0  0  0  0
   44.8290    8.6750    9.7600 C   0  0  0  0  0  0
   44.0630    8.0170   10.6540 N   0  0  0  0  0  0
   43.9810    6.6740   10.5500 C   0  0  0  0  0  0
   45.3690    3.5680   10.4250 C   0  0  2  0  0  0
   45.1200    2.0290   10.3080 C   0  0  1  0  0  0
   44.9790    1.5830   11.7400 C   0  0  0  0  0  0
   45.0370    2.5880   12.6030 C   0  0  0  0  0  0
   45.2000    3.9180   11.9280 C   0  0  0  0  0  0
   41.7560    2.2550    8.4640 C   0  0  0  0  0  0
   40.8310    3.1920    8.1490 F   0  0  0  0  0  0
   41.5520    0.9120    8.0950 C   0  0  0  0  0  0
   44.4150   -0.4510    9.3650 H   0  0  0  0  0  0
   42.4160    4.6310    9.2100 H   0  0  0  0  0  0
   44.8600    4.1590    8.4420 H   0  0  0  0  0  0
   45.9870    6.1120    7.8580 H   0  0  0  0  0  0
   46.1390    8.5940    8.0340 H   0  0  0  0  0  0
   44.8700    9.7490    9.8650 H   0  0  0  0  0  0
   43.3220    6.2000   11.2620 H   0  0  0  0  0  0
   46.4190    3.7420   10.1830 H   0  0  0  0  0  0
   45.9930    1.5400    9.8710 H   0  0  0  0  0  0
   44.8110    0.5550   12.0160 H   0  0  0  0  0  0
   44.9190    2.4900   13.6720 H   0  0  0  0  0  0
   44.2980    4.4880   12.1350 H   0  0  0  0  0  0
   46.0580    4.4640   12.3180 H   0  0  0  0  0  0
   40.6550    0.6330    7.5650 H   0  0  0  0  0  0
  1  2  1  0  0  0
  2 21  1  0  0  0
  2  3  2  0  0  0
  3  4  1  0  0  0
  3 22  1  0  0  0
  4 15  1  0  0  0
  4  5  2  0  0  0
  5  6  1  0  0  0
  5 19  1  0  0  0
  6  7  1  0  0  0
  6 23  1  0  0  0
  7  8  1  0  0  0
  7 14  1  0  0  0
  7 24  1  0  0  0
  8 13  1  0  0  0
  8  9  2  0  0  0
  9 10  1  0  0  0
  9 25  1  0  0  0
 10 11  2  0  0  0
 10 26  1  0  0  0
 11 12  1  0  0  0
 11 27  1  0  0  0
 12 13  2  0  0  0
 13 28  1  0  0  0
 14 18  1  0  0  0
 14 15  1  0  0  0
 14 29  1  0  0  0
 15 16  1  0  0  0
 15 30  1  0  0  0
 16 17  2  0  0  0
 16 31  1  0  0  0
 17 18  1  0  0  0
 17 32  1  0  0  0
 18 33  1  0  0  0
 18 34  1  0  0  0
 19 20  1  0  0  0
 19 21  2  0  0  0
 21 35  1  0  0  0
M  END
> <r_pdb_PDB_EXPDTA_TEMPERATURE>
100

> <r_pdb_PDB_RESOLUTION>
2.3

> <s_pdb_PDB_EXPDTA>
X-RAY DIFFRACTION

> <s_pdb_PDB_ID>
7RAD

> <s_pdb_PDB_TITLE>
CRYSTAL STRUCTURE ANALYSIS OF ALDH1B1

> <s_pdb_PDB_format_version>
3.0

$$$$
