7RAD
                    3D
 Schrodinger Suite 2023-4.
 35 38  0  0  1  0            999 V2000
   42.3290   -1.3340    8.0250 F   0  0  0  0  0  0
   42.5210   -0.0470    8.3960 C   0  0  0  0  0  0
   43.6990    0.3190    9.0720 C   0  0  0  0  0  0
   43.9030    1.6580    9.4640 C   0  0  0  0  0  0
   42.9220    2.6310    9.1650 C   0  0  0  0  0  0
   43.1240    3.9680    9.5110 N   0  0  0  0  0  0
   44.5010    4.4170    9.4130 C   0  0  1  0  0  0
   44.6490    5.9320    9.5350 C   0  0  0  0  0  0
   45.4370    6.6410    8.6050 C   0  0  0  0  0  0
   45.5280    8.0420    8.7040 C   0  0  0  0  0  0
   44.8270    8.6850    9.7400 C   0  0  0  0  0  0
   44.0680    8.0250   10.6390 N   0  0  0  0  0  0
   43.9810    6.6830   10.5290 C   0  0  0  0  0  0
   45.4080    3.5810   10.3500 C   0  0  2  0  0  0
   45.1460    2.0420   10.2560 C   0  0  1  0  0  0
   45.0250    1.6120   11.6940 C   0  0  0  0  0  0
   45.1330    2.6220   12.5480 C   0  0  0  0  0  0
   45.3200    3.9410   11.8570 C   0  0  0  0  0  0
   41.7380    2.2600    8.5000 C   0  0  0  0  0  0
   40.7970    3.1940    8.2180 F   0  0  0  0  0  0
   41.5370    0.9210    8.1160 C   0  0  0  0  0  0
   44.4420   -0.4330    9.2990 H   0  0  0  0  0  0
   42.3970    4.6310    9.2640 H   0  0  0  0  0  0
   44.8040    4.1790    8.3940 H   0  0  0  0  0  0
   45.9590    6.1270    7.8150 H   0  0  0  0  0  0
   46.1210    8.6090    8.0020 H   0  0  0  0  0  0
   44.8720    9.7590    9.8490 H   0  0  0  0  0  0
   43.3320    6.2050   11.2480 H   0  0  0  0  0  0
   46.4420    3.7540   10.0490 H   0  0  0  0  0  0
   46.0080    1.5420    9.8120 H   0  0  0  0  0  0
   44.8330    0.5920   11.9840 H   0  0  0  0  0  0
   45.0390    2.5360   13.6190 H   0  0  0  0  0  0
   44.4590    4.5550   12.1040 H   0  0  0  0  0  0
   46.2210    4.4440   12.2050 H   0  0  0  0  0  0
   40.6300    0.6400    7.6040 H   0  0  0  0  0  0
  1  2  1  0  0  0
  2 21  1  0  0  0
  2  3  2  0  0  0
  3  4  1  0  0  0
  3 22  1  0  0  0
  4 15  1  0  0  0
  4  5  2  0  0  0
  5  6  1  0  0  0
  5 19  1  0  0  0
  6  7  1  0  0  0
  6 23  1  0  0  0
  7  8  1  0  0  0
  7 14  1  0  0  0
  7 24  1  0  0  0
  8 13  1  0  0  0
  8  9  2  0  0  0
  9 10  1  0  0  0
  9 25  1  0  0  0
 10 11  2  0  0  0
 10 26  1  0  0  0
 11 12  1  0  0  0
 11 27  1  0  0  0
 12 13  2  0  0  0
 13 28  1  0  0  0
 14 18  1  0  0  0
 14 15  1  0  0  0
 14 29  1  0  0  0
 15 16  1  0  0  0
 15 30  1  0  0  0
 16 17  2  0  0  0
 16 31  1  0  0  0
 17 18  1  0  0  0
 17 32  1  0  0  0
 18 33  1  0  0  0
 18 34  1  0  0  0
 19 20  1  0  0  0
 19 21  2  0  0  0
 21 35  1  0  0  0
M  END
> <r_pdb_PDB_EXPDTA_TEMPERATURE>
100

> <r_pdb_PDB_RESOLUTION>
2.3

> <s_pdb_PDB_EXPDTA>
X-RAY DIFFRACTION

> <s_pdb_PDB_ID>
7RAD

> <s_pdb_PDB_TITLE>
CRYSTAL STRUCTURE ANALYSIS OF ALDH1B1

> <s_pdb_PDB_format_version>
3.0

$$$$
