7RAD
                    3D
 Schrodinger Suite 2023-4.
 35 38  0  0  1  0            999 V2000
   42.3640   -1.3260    8.0250 F   0  0  0  0  0  0
   42.5500   -0.0390    8.3990 C   0  0  0  0  0  0
   43.7230    0.3280    9.0860 C   0  0  0  0  0  0
   43.9240    1.6680    9.4760 C   0  0  0  0  0  0
   42.9470    2.6410    9.1650 C   0  0  0  0  0  0
   43.1470    3.9800    9.5080 N   0  0  0  0  0  0
   44.5240    4.4300    9.4320 C   0  0  1  0  0  0
   44.6730    5.9440    9.5740 C   0  0  0  0  0  0
   45.4960    6.6600    8.6810 C   0  0  0  0  0  0
   45.5890    8.0590    8.7990 C   0  0  0  0  0  0
   44.8550    8.6940    9.8180 C   0  0  0  0  0  0
   44.0640    8.0270   10.6820 N   0  0  0  0  0  0
   43.9750    6.6860   10.5550 C   0  0  0  0  0  0
   45.4190    3.5900   10.3770 C   0  0  2  0  0  0
   45.1610    2.0510   10.2770 C   0  0  1  0  0  0
   45.0350    1.6170   11.7130 C   0  0  0  0  0  0
   45.1310    2.6260   12.5690 C   0  0  0  0  0  0
   45.3110    3.9480   11.8830 C   0  0  0  0  0  0
   41.7670    2.2690    8.4920 C   0  0  0  0  0  0
   40.8290    3.2020    8.2010 F   0  0  0  0  0  0
   41.5700    0.9290    8.1100 C   0  0  0  0  0  0
   44.4640   -0.4230    9.3190 H   0  0  0  0  0  0
   42.4220    4.6420    9.2540 H   0  0  0  0  0  0
   44.8430    4.2020    8.4170 H   0  0  0  0  0  0
   46.0460    6.1530    7.9060 H   0  0  0  0  0  0
   46.2100    8.6310    8.1260 H   0  0  0  0  0  0
   44.9020    9.7660    9.9410 H   0  0  0  0  0  0
   43.3030    6.2020   11.2480 H   0  0  0  0  0  0
   46.4570    3.7640   10.0910 H   0  0  0  0  0  0
   46.0270    1.5550    9.8350 H   0  0  0  0  0  0
   44.8500    0.5940   11.9990 H   0  0  0  0  0  0
   45.0320    2.5370   13.6400 H   0  0  0  0  0  0
   44.4380    4.5500   12.1200 H   0  0  0  0  0  0
   46.2010    4.4670   12.2350 H   0  0  0  0  0  0
   40.6670    0.6480    7.5910 H   0  0  0  0  0  0
  1  2  1  0  0  0
  2 21  1  0  0  0
  2  3  2  0  0  0
  3  4  1  0  0  0
  3 22  1  0  0  0
  4 15  1  0  0  0
  4  5  2  0  0  0
  5  6  1  0  0  0
  5 19  1  0  0  0
  6  7  1  0  0  0
  6 23  1  0  0  0
  7  8  1  0  0  0
  7 14  1  0  0  0
  7 24  1  0  0  0
  8 13  1  0  0  0
  8  9  2  0  0  0
  9 10  1  0  0  0
  9 25  1  0  0  0
 10 11  2  0  0  0
 10 26  1  0  0  0
 11 12  1  0  0  0
 11 27  1  0  0  0
 12 13  2  0  0  0
 13 28  1  0  0  0
 14 18  1  0  0  0
 14 15  1  0  0  0
 14 29  1  0  0  0
 15 16  1  0  0  0
 15 30  1  0  0  0
 16 17  2  0  0  0
 16 31  1  0  0  0
 17 18  1  0  0  0
 17 32  1  0  0  0
 18 33  1  0  0  0
 18 34  1  0  0  0
 19 20  1  0  0  0
 19 21  2  0  0  0
 21 35  1  0  0  0
M  END
> <r_pdb_PDB_EXPDTA_TEMPERATURE>
100

> <r_pdb_PDB_RESOLUTION>
2.3

> <s_pdb_PDB_EXPDTA>
X-RAY DIFFRACTION

> <s_pdb_PDB_ID>
7RAD

> <s_pdb_PDB_TITLE>
CRYSTAL STRUCTURE ANALYSIS OF ALDH1B1

> <s_pdb_PDB_format_version>
3.0

$$$$
