7RAD
                    3D
 Schrodinger Suite 2023-4.
 35 38  0  0  1  0            999 V2000
   42.3390   -1.3440    8.0430 F   0  0  0  0  0  0
   42.5290   -0.0550    8.4090 C   0  0  0  0  0  0
   43.7020    0.3130    9.0960 C   0  0  0  0  0  0
   43.9030    1.6540    9.4810 C   0  0  0  0  0  0
   42.9280    2.6270    9.1650 C   0  0  0  0  0  0
   43.1290    3.9660    9.5040 N   0  0  0  0  0  0
   44.5080    4.4120    9.4170 C   0  0  1  0  0  0
   44.6580    5.9280    9.5330 C   0  0  0  0  0  0
   45.4600    6.6300    8.6100 C   0  0  0  0  0  0
   45.5510    8.0320    8.7020 C   0  0  0  0  0  0
   44.8370    8.6820    9.7250 C   0  0  0  0  0  0
   44.0660    8.0290   10.6180 N   0  0  0  0  0  0
   43.9780    6.6850   10.5150 C   0  0  0  0  0  0
   45.4050    3.5800   10.3680 C   0  0  2  0  0  0
   45.1370    2.0410   10.2860 C   0  0  1  0  0  0
   44.9950    1.6270   11.7270 C   0  0  0  0  0  0
   45.1050    2.6430   12.5720 C   0  0  0  0  0  0
   45.3090    3.9540   11.8710 C   0  0  0  0  0  0
   41.7500    2.2540    8.4880 C   0  0  0  0  0  0
   40.8150    3.1880    8.1910 F   0  0  0  0  0  0
   41.5520    0.9130    8.1120 C   0  0  0  0  0  0
   44.4410   -0.4380    9.3340 H   0  0  0  0  0  0
   42.4070    4.6280    9.2450 H   0  0  0  0  0  0
   44.8200    4.1680    8.4030 H   0  0  0  0  0  0
   45.9930    6.1110    7.8310 H   0  0  0  0  0  0
   46.1560    8.5930    8.0060 H   0  0  0  0  0  0
   44.8840    9.7560    9.8290 H   0  0  0  0  0  0
   43.3200    6.2130   11.2270 H   0  0  0  0  0  0
   46.4420    3.7460   10.0720 H   0  0  0  0  0  0
   46.0030    1.5320    9.8600 H   0  0  0  0  0  0
   44.7880    0.6120   12.0250 H   0  0  0  0  0  0
   44.9990    2.5680   13.6440 H   0  0  0  0  0  0
   44.4510    4.5780   12.1060 H   0  0  0  0  0  0
   46.2120    4.4530   12.2210 H   0  0  0  0  0  0
   40.6500    0.6310    7.5910 H   0  0  0  0  0  0
  1  2  1  0  0  0
  2 21  1  0  0  0
  2  3  2  0  0  0
  3  4  1  0  0  0
  3 22  1  0  0  0
  4 15  1  0  0  0
  4  5  2  0  0  0
  5  6  1  0  0  0
  5 19  1  0  0  0
  6  7  1  0  0  0
  6 23  1  0  0  0
  7  8  1  0  0  0
  7 14  1  0  0  0
  7 24  1  0  0  0
  8 13  1  0  0  0
  8  9  2  0  0  0
  9 10  1  0  0  0
  9 25  1  0  0  0
 10 11  2  0  0  0
 10 26  1  0  0  0
 11 12  1  0  0  0
 11 27  1  0  0  0
 12 13  2  0  0  0
 13 28  1  0  0  0
 14 18  1  0  0  0
 14 15  1  0  0  0
 14 29  1  0  0  0
 15 16  1  0  0  0
 15 30  1  0  0  0
 16 17  2  0  0  0
 16 31  1  0  0  0
 17 18  1  0  0  0
 17 32  1  0  0  0
 18 33  1  0  0  0
 18 34  1  0  0  0
 19 20  1  0  0  0
 19 21  2  0  0  0
 21 35  1  0  0  0
M  END
> <r_pdb_PDB_EXPDTA_TEMPERATURE>
100

> <r_pdb_PDB_RESOLUTION>
2.3

> <s_pdb_PDB_EXPDTA>
X-RAY DIFFRACTION

> <s_pdb_PDB_ID>
7RAD

> <s_pdb_PDB_TITLE>
CRYSTAL STRUCTURE ANALYSIS OF ALDH1B1

> <s_pdb_PDB_format_version>
3.0

$$$$
