7RAD
                    3D
 Schrodinger Suite 2023-4.
 35 38  0  0  1  0            999 V2000
   42.2960   -1.3380    8.0320 F   0  0  0  0  0  0
   42.4950   -0.0520    8.4020 C   0  0  0  0  0  0
   43.6830    0.3120    9.0610 C   0  0  0  0  0  0
   43.8930    1.6490    9.4550 C   0  0  0  0  0  0
   42.9080    2.6250    9.1750 C   0  0  0  0  0  0
   43.1150    3.9580    9.5270 N   0  0  0  0  0  0
   44.4910    4.4080    9.4080 C   0  0  1  0  0  0
   44.6430    5.9210    9.5410 C   0  0  0  0  0  0
   45.4360    6.6360    8.6190 C   0  0  0  0  0  0
   45.5290    8.0340    8.7280 C   0  0  0  0  0  0
   44.8250    8.6730    9.7660 C   0  0  0  0  0  0
   44.0620    8.0070   10.6580 N   0  0  0  0  0  0
   43.9730    6.6670   10.5390 C   0  0  0  0  0  0
   45.4190    3.5650   10.3210 C   0  0  2  0  0  0
   45.1440    2.0270   10.2340 C   0  0  1  0  0  0
   45.0300    1.6020   11.6740 C   0  0  0  0  0  0
   45.1650    2.6110   12.5240 C   0  0  0  0  0  0
   45.3770    3.9240   11.8300 C   0  0  0  0  0  0
   41.7140    2.2560    8.5240 C   0  0  0  0  0  0
   40.7700    3.1900    8.2600 F   0  0  0  0  0  0
   41.5090    0.9180    8.1380 C   0  0  0  0  0  0
   44.4290   -0.4410    9.2750 H   0  0  0  0  0  0
   42.3860    4.6230    9.2900 H   0  0  0  0  0  0
   44.7740    4.1800    8.3820 H   0  0  0  0  0  0
   45.9600    6.1250    7.8280 H   0  0  0  0  0  0
   46.1260    8.6060    8.0330 H   0  0  0  0  0  0
   44.8720    9.7450    9.8830 H   0  0  0  0  0  0
   43.3240    6.1830   11.2540 H   0  0  0  0  0  0
   46.4450    3.7330    9.9900 H   0  0  0  0  0  0
   46.0000    1.5190    9.7860 H   0  0  0  0  0  0
   44.8210    0.5860   11.9660 H   0  0  0  0  0  0
   45.0820    2.5280   13.5960 H   0  0  0  0  0  0
   44.5470    4.5720   12.0980 H   0  0  0  0  0  0
   46.3040    4.3910   12.1580 H   0  0  0  0  0  0
   40.5940    0.6390    7.6390 H   0  0  0  0  0  0
  1  2  1  0  0  0
  2 21  1  0  0  0
  2  3  2  0  0  0
  3  4  1  0  0  0
  3 22  1  0  0  0
  4 15  1  0  0  0
  4  5  2  0  0  0
  5  6  1  0  0  0
  5 19  1  0  0  0
  6  7  1  0  0  0
  6 23  1  0  0  0
  7  8  1  0  0  0
  7 14  1  0  0  0
  7 24  1  0  0  0
  8 13  1  0  0  0
  8  9  2  0  0  0
  9 10  1  0  0  0
  9 25  1  0  0  0
 10 11  2  0  0  0
 10 26  1  0  0  0
 11 12  1  0  0  0
 11 27  1  0  0  0
 12 13  2  0  0  0
 13 28  1  0  0  0
 14 18  1  0  0  0
 14 15  1  0  0  0
 14 29  1  0  0  0
 15 16  1  0  0  0
 15 30  1  0  0  0
 16 17  2  0  0  0
 16 31  1  0  0  0
 17 18  1  0  0  0
 17 32  1  0  0  0
 18 33  1  0  0  0
 18 34  1  0  0  0
 19 20  1  0  0  0
 19 21  2  0  0  0
 21 35  1  0  0  0
M  END
> <r_pdb_PDB_EXPDTA_TEMPERATURE>
100

> <r_pdb_PDB_RESOLUTION>
2.3

> <s_pdb_PDB_EXPDTA>
X-RAY DIFFRACTION

> <s_pdb_PDB_ID>
7RAD

> <s_pdb_PDB_TITLE>
CRYSTAL STRUCTURE ANALYSIS OF ALDH1B1

> <s_pdb_PDB_format_version>
3.0

$$$$
