7RAD
                    3D
 Schrodinger Suite 2023-4.
 35 38  0  0  1  0            999 V2000
   42.2930   -1.3410    8.0630 F   0  0  0  0  0  0
   42.4930   -0.0520    8.4230 C   0  0  0  0  0  0
   43.6750    0.3130    9.0960 C   0  0  0  0  0  0
   43.8860    1.6520    9.4780 C   0  0  0  0  0  0
   42.9110    2.6310    9.1730 C   0  0  0  0  0  0
   43.1180    3.9670    9.5120 N   0  0  0  0  0  0
   44.4970    4.4130    9.4220 C   0  0  1  0  0  0
   44.6490    5.9260    9.5500 C   0  0  0  0  0  0
   45.4460    6.6370    8.6280 C   0  0  0  0  0  0
   45.5380    8.0370    8.7310 C   0  0  0  0  0  0
   44.8310    8.6790    9.7640 C   0  0  0  0  0  0
   44.0650    8.0180   10.6560 N   0  0  0  0  0  0
   43.9750    6.6760   10.5410 C   0  0  0  0  0  0
   45.3960    3.5730   10.3630 C   0  0  2  0  0  0
   45.1320    2.0340   10.2690 C   0  0  1  0  0  0
   45.0140    1.6030   11.7060 C   0  0  0  0  0  0
   45.1210    2.6140   12.5610 C   0  0  0  0  0  0
   45.3030    3.9330   11.8700 C   0  0  0  0  0  0
   41.7240    2.2600    8.5090 C   0  0  0  0  0  0
   40.7890    3.1970    8.2220 F   0  0  0  0  0  0
   41.5160    0.9200    8.1360 C   0  0  0  0  0  0
   44.4130   -0.4420    9.3270 H   0  0  0  0  0  0
   42.3950    4.6320    9.2620 H   0  0  0  0  0  0
   44.8050    4.1750    8.4050 H   0  0  0  0  0  0
   45.9730    6.1240    7.8410 H   0  0  0  0  0  0
   46.1370    8.6050    8.0350 H   0  0  0  0  0  0
   44.8770    9.7520    9.8770 H   0  0  0  0  0  0
   43.3210    6.1980   11.2540 H   0  0  0  0  0  0
   46.4330    3.7430   10.0690 H   0  0  0  0  0  0
   45.9920    1.5340    9.8210 H   0  0  0  0  0  0
   44.8260    0.5820   11.9960 H   0  0  0  0  0  0
   45.0300    2.5270   13.6320 H   0  0  0  0  0  0
   44.4360    4.5410   12.1140 H   0  0  0  0  0  0
   46.1990    4.4440   12.2190 H   0  0  0  0  0  0
   40.6070    0.6400    7.6260 H   0  0  0  0  0  0
  1  2  1  0  0  0
  2 21  1  0  0  0
  2  3  2  0  0  0
  3  4  1  0  0  0
  3 22  1  0  0  0
  4 15  1  0  0  0
  4  5  2  0  0  0
  5  6  1  0  0  0
  5 19  1  0  0  0
  6  7  1  0  0  0
  6 23  1  0  0  0
  7  8  1  0  0  0
  7 14  1  0  0  0
  7 24  1  0  0  0
  8 13  1  0  0  0
  8  9  2  0  0  0
  9 10  1  0  0  0
  9 25  1  0  0  0
 10 11  2  0  0  0
 10 26  1  0  0  0
 11 12  1  0  0  0
 11 27  1  0  0  0
 12 13  2  0  0  0
 13 28  1  0  0  0
 14 18  1  0  0  0
 14 15  1  0  0  0
 14 29  1  0  0  0
 15 16  1  0  0  0
 15 30  1  0  0  0
 16 17  2  0  0  0
 16 31  1  0  0  0
 17 18  1  0  0  0
 17 32  1  0  0  0
 18 33  1  0  0  0
 18 34  1  0  0  0
 19 20  1  0  0  0
 19 21  2  0  0  0
 21 35  1  0  0  0
M  END
> <r_pdb_PDB_EXPDTA_TEMPERATURE>
100

> <r_pdb_PDB_RESOLUTION>
2.3

> <s_pdb_PDB_EXPDTA>
X-RAY DIFFRACTION

> <s_pdb_PDB_ID>
7RAD

> <s_pdb_PDB_TITLE>
CRYSTAL STRUCTURE ANALYSIS OF ALDH1B1

> <s_pdb_PDB_format_version>
3.0

$$$$
