7RAD
                    3D
 Schrodinger Suite 2023-4.
 35 38  0  0  1  0            999 V2000
   42.3000   -1.3510    8.0480 F   0  0  0  0  0  0
   42.5000   -0.0620    8.4100 C   0  0  0  0  0  0
   43.6810    0.3020    9.0830 C   0  0  0  0  0  0
   43.8910    1.6430    9.4660 C   0  0  0  0  0  0
   42.9160    2.6190    9.1600 C   0  0  0  0  0  0
   43.1240    3.9580    9.4990 N   0  0  0  0  0  0
   44.5030    4.4010    9.4080 C   0  0  1  0  0  0
   44.6550    5.9160    9.5340 C   0  0  0  0  0  0
   45.4530    6.6240    8.6130 C   0  0  0  0  0  0
   45.5460    8.0250    8.7140 C   0  0  0  0  0  0
   44.8370    8.6680    9.7440 C   0  0  0  0  0  0
   44.0690    8.0090   10.6360 N   0  0  0  0  0  0
   43.9800    6.6670   10.5240 C   0  0  0  0  0  0
   45.4010    3.5620   10.3510 C   0  0  2  0  0  0
   45.1360    2.0240   10.2570 C   0  0  1  0  0  0
   45.0160    1.5940   11.6950 C   0  0  0  0  0  0
   45.1230    2.6050   12.5490 C   0  0  0  0  0  0
   45.3060    3.9240   11.8570 C   0  0  0  0  0  0
   41.7300    2.2510    8.4970 C   0  0  0  0  0  0
   40.7940    3.1870    8.2100 F   0  0  0  0  0  0
   41.5220    0.9090    8.1230 C   0  0  0  0  0  0
   44.4190   -0.4520    9.3140 H   0  0  0  0  0  0
   42.4000    4.6220    9.2480 H   0  0  0  0  0  0
   44.8110    4.1630    8.3920 H   0  0  0  0  0  0
   45.9810    6.1100    7.8270 H   0  0  0  0  0  0
   46.1460    8.5910    8.0170 H   0  0  0  0  0  0
   44.8830    9.7420    9.8550 H   0  0  0  0  0  0
   43.3250    6.1900   11.2370 H   0  0  0  0  0  0
   46.4380    3.7320   10.0570 H   0  0  0  0  0  0
   45.9970    1.5230    9.8120 H   0  0  0  0  0  0
   44.8270    0.5740   11.9850 H   0  0  0  0  0  0
   45.0300    2.5190   13.6200 H   0  0  0  0  0  0
   44.4410    4.5340   12.1000 H   0  0  0  0  0  0
   46.2030    4.4330   12.2070 H   0  0  0  0  0  0
   40.6130    0.6300    7.6120 H   0  0  0  0  0  0
  1  2  1  0  0  0
  2 21  1  0  0  0
  2  3  2  0  0  0
  3  4  1  0  0  0
  3 22  1  0  0  0
  4 15  1  0  0  0
  4  5  2  0  0  0
  5  6  1  0  0  0
  5 19  1  0  0  0
  6  7  1  0  0  0
  6 23  1  0  0  0
  7  8  1  0  0  0
  7 14  1  0  0  0
  7 24  1  0  0  0
  8 13  1  0  0  0
  8  9  2  0  0  0
  9 10  1  0  0  0
  9 25  1  0  0  0
 10 11  2  0  0  0
 10 26  1  0  0  0
 11 12  1  0  0  0
 11 27  1  0  0  0
 12 13  2  0  0  0
 13 28  1  0  0  0
 14 18  1  0  0  0
 14 15  1  0  0  0
 14 29  1  0  0  0
 15 16  1  0  0  0
 15 30  1  0  0  0
 16 17  2  0  0  0
 16 31  1  0  0  0
 17 18  1  0  0  0
 17 32  1  0  0  0
 18 33  1  0  0  0
 18 34  1  0  0  0
 19 20  1  0  0  0
 19 21  2  0  0  0
 21 35  1  0  0  0
M  END
> <r_pdb_PDB_EXPDTA_TEMPERATURE>
100

> <r_pdb_PDB_RESOLUTION>
2.3

> <s_pdb_PDB_EXPDTA>
X-RAY DIFFRACTION

> <s_pdb_PDB_ID>
7RAD

> <s_pdb_PDB_TITLE>
CRYSTAL STRUCTURE ANALYSIS OF ALDH1B1

> <s_pdb_PDB_format_version>
3.0

$$$$
