7RAD
                    3D
 Schrodinger Suite 2023-4.
 35 38  0  0  1  0            999 V2000
   42.3100   -1.3430    8.0500 F   0  0  0  0  0  0
   42.5050   -0.0550    8.4140 C   0  0  0  0  0  0
   43.6830    0.3120    9.0920 C   0  0  0  0  0  0
   43.8890    1.6520    9.4790 C   0  0  0  0  0  0
   42.9110    2.6250    9.1720 C   0  0  0  0  0  0
   43.1120    3.9630    9.5180 N   0  0  0  0  0  0
   44.4890    4.4130    9.4380 C   0  0  1  0  0  0
   44.6360    5.9280    9.5750 C   0  0  0  0  0  0
   45.4350    6.6470    8.6610 C   0  0  0  0  0  0
   45.5240    8.0460    8.7750 C   0  0  0  0  0  0
   44.8110    8.6800    9.8100 C   0  0  0  0  0  0
   44.0430    8.0110   10.6940 N   0  0  0  0  0  0
   43.9570    6.6700   10.5700 C   0  0  0  0  0  0
   45.3860    3.5730   10.3800 C   0  0  2  0  0  0
   45.1310    2.0340   10.2730 C   0  0  1  0  0  0
   45.0170    1.5920   11.7080 C   0  0  0  0  0  0
   45.1120    2.5970   12.5690 C   0  0  0  0  0  0
   45.2770    3.9230   11.8880 C   0  0  0  0  0  0
   41.7300    2.2550    8.5020 C   0  0  0  0  0  0
   40.7930    3.1900    8.2130 F   0  0  0  0  0  0
   41.5270    0.9160    8.1240 C   0  0  0  0  0  0
   44.4230   -0.4410    9.3230 H   0  0  0  0  0  0
   42.3870    4.6260    9.2650 H   0  0  0  0  0  0
   44.8030    4.1840    8.4220 H   0  0  0  0  0  0
   45.9660    6.1400    7.8740 H   0  0  0  0  0  0
   46.1250    8.6200    8.0860 H   0  0  0  0  0  0
   44.8560    9.7520    9.9310 H   0  0  0  0  0  0
   43.3010    6.1850   11.2770 H   0  0  0  0  0  0
   46.4240    3.7500   10.0950 H   0  0  0  0  0  0
   45.9940    1.5420    9.8230 H   0  0  0  0  0  0
   44.8390    0.5670   11.9900 H   0  0  0  0  0  0
   45.0190    2.5020   13.6400 H   0  0  0  0  0  0
   44.3980    4.5150   12.1290 H   0  0  0  0  0  0
   46.1620    4.4480   12.2440 H   0  0  0  0  0  0
   40.6210    0.6340    7.6090 H   0  0  0  0  0  0
  1  2  1  0  0  0
  2 21  1  0  0  0
  2  3  2  0  0  0
  3  4  1  0  0  0
  3 22  1  0  0  0
  4 15  1  0  0  0
  4  5  2  0  0  0
  5  6  1  0  0  0
  5 19  1  0  0  0
  6  7  1  0  0  0
  6 23  1  0  0  0
  7  8  1  0  0  0
  7 14  1  0  0  0
  7 24  1  0  0  0
  8 13  1  0  0  0
  8  9  2  0  0  0
  9 10  1  0  0  0
  9 25  1  0  0  0
 10 11  2  0  0  0
 10 26  1  0  0  0
 11 12  1  0  0  0
 11 27  1  0  0  0
 12 13  2  0  0  0
 13 28  1  0  0  0
 14 18  1  0  0  0
 14 15  1  0  0  0
 14 29  1  0  0  0
 15 16  1  0  0  0
 15 30  1  0  0  0
 16 17  2  0  0  0
 16 31  1  0  0  0
 17 18  1  0  0  0
 17 32  1  0  0  0
 18 33  1  0  0  0
 18 34  1  0  0  0
 19 20  1  0  0  0
 19 21  2  0  0  0
 21 35  1  0  0  0
M  END
> <r_pdb_PDB_EXPDTA_TEMPERATURE>
100

> <r_pdb_PDB_RESOLUTION>
2.3

> <s_pdb_PDB_EXPDTA>
X-RAY DIFFRACTION

> <s_pdb_PDB_ID>
7RAD

> <s_pdb_PDB_TITLE>
CRYSTAL STRUCTURE ANALYSIS OF ALDH1B1

> <s_pdb_PDB_format_version>
3.0

$$$$
