7RAD
                    3D
 Schrodinger Suite 2023-4.
 35 38  0  0  1  0            999 V2000
   42.2910   -1.3840    8.0390 F   0  0  0  0  0  0
   42.4800   -0.0910    8.3930 C   0  0  0  0  0  0
   43.6510    0.2810    9.0780 C   0  0  0  0  0  0
   43.8540    1.6260    9.4520 C   0  0  0  0  0  0
   42.8790    2.5970    9.1270 C   0  0  0  0  0  0
   43.0810    3.9390    9.4580 N   0  0  0  0  0  0
   44.4600    4.3870    9.3870 C   0  0  1  0  0  0
   44.6120    5.9010    9.5140 C   0  0  0  0  0  0
   45.4140    6.6100    8.5950 C   0  0  0  0  0  0
   45.5110    8.0090    8.6990 C   0  0  0  0  0  0
   44.8030    8.6540    9.7300 C   0  0  0  0  0  0
   44.0330    7.9940   10.6200 N   0  0  0  0  0  0
   43.9390    6.6530   10.5050 C   0  0  0  0  0  0
   45.3500    3.5530   10.3420 C   0  0  2  0  0  0
   45.0940    2.0140   10.2470 C   0  0  1  0  0  0
   44.9820    1.5820   11.6860 C   0  0  0  0  0  0
   45.0760    2.5950   12.5390 C   0  0  0  0  0  0
   45.2370    3.9160   11.8470 C   0  0  0  0  0  0
   41.7010    2.2190    8.4510 C   0  0  0  0  0  0
   40.7640    3.1480    8.1410 F   0  0  0  0  0  0
   41.5020    0.8730    8.0850 C   0  0  0  0  0  0
   44.3880   -0.4690    9.3240 H   0  0  0  0  0  0
   42.3580    4.6010    9.2040 H   0  0  0  0  0  0
   44.7830    4.1470    8.3750 H   0  0  0  0  0  0
   45.9420    6.0960    7.8100 H   0  0  0  0  0  0
   46.1140    8.5750    8.0050 H   0  0  0  0  0  0
   44.8530    9.7270    9.8430 H   0  0  0  0  0  0
   43.2830    6.1770   11.2170 H   0  0  0  0  0  0
   46.3890    3.7250   10.0610 H   0  0  0  0  0  0
   45.9590    1.5200    9.8010 H   0  0  0  0  0  0
   44.8090    0.5590   11.9760 H   0  0  0  0  0  0
   44.9880    2.5080   13.6110 H   0  0  0  0  0  0
   44.3540    4.5050   12.0810 H   0  0  0  0  0  0
   46.1180    4.4480   12.2020 H   0  0  0  0  0  0
   40.6040    0.5850    7.5610 H   0  0  0  0  0  0
  1  2  1  0  0  0
  2 21  1  0  0  0
  2  3  2  0  0  0
  3  4  1  0  0  0
  3 22  1  0  0  0
  4 15  1  0  0  0
  4  5  2  0  0  0
  5  6  1  0  0  0
  5 19  1  0  0  0
  6  7  1  0  0  0
  6 23  1  0  0  0
  7  8  1  0  0  0
  7 14  1  0  0  0
  7 24  1  0  0  0
  8 13  1  0  0  0
  8  9  2  0  0  0
  9 10  1  0  0  0
  9 25  1  0  0  0
 10 11  2  0  0  0
 10 26  1  0  0  0
 11 12  1  0  0  0
 11 27  1  0  0  0
 12 13  2  0  0  0
 13 28  1  0  0  0
 14 18  1  0  0  0
 14 15  1  0  0  0
 14 29  1  0  0  0
 15 16  1  0  0  0
 15 30  1  0  0  0
 16 17  2  0  0  0
 16 31  1  0  0  0
 17 18  1  0  0  0
 17 32  1  0  0  0
 18 33  1  0  0  0
 18 34  1  0  0  0
 19 20  1  0  0  0
 19 21  2  0  0  0
 21 35  1  0  0  0
M  END
> <r_pdb_PDB_EXPDTA_TEMPERATURE>
100

> <r_pdb_PDB_RESOLUTION>
2.3

> <s_pdb_PDB_EXPDTA>
X-RAY DIFFRACTION

> <s_pdb_PDB_ID>
7RAD

> <s_pdb_PDB_TITLE>
CRYSTAL STRUCTURE ANALYSIS OF ALDH1B1

> <s_pdb_PDB_format_version>
3.0

$$$$
