protein_477_ligand
                    3D
 Schrodinger Suite 2024-1.
 35 38  0  0  1  0            999 V2000
   42.2250   -1.3320    8.0990 F   0  0  0  0  0  0
   42.4360   -0.0440    8.4540 C   0  0  0  0  0  0
   43.6160    0.3110    9.1330 C   0  0  0  0  0  0
   43.8390    1.6520    9.5090 C   0  0  0  0  0  0
   42.8770    2.6360    9.1930 C   0  0  0  0  0  0
   43.0980    3.9740    9.5340 N   0  0  0  0  0  0
   44.4810    4.4010    9.4310 C   0  0  1  0  0  0
   44.6490    5.9150    9.5450 C   0  0  0  0  0  0
   45.4470    6.6100    8.6120 C   0  0  0  0  0  0
   45.5510    8.0110    8.7010 C   0  0  0  0  0  0
   44.8530    8.6680    9.7310 C   0  0  0  0  0  0
   44.0860    8.0220   10.6330 N   0  0  0  0  0  0
   43.9860    6.6800   10.5320 C   0  0  0  0  0  0
   45.3870    3.5550   10.3650 C   0  0  2  0  0  0
   45.0810    2.0220   10.3060 C   0  0  1  0  0  0
   44.9270    1.6300   11.7520 C   0  0  0  0  0  0
   45.0830    2.6500   12.5840 C   0  0  0  0  0  0
   45.3510    3.9420   11.8680 C   0  0  0  0  0  0
   41.6940    2.2790    8.5190 C   0  0  0  0  0  0
   40.7740    3.2250    8.2140 F   0  0  0  0  0  0
   41.4730    0.9380    8.1510 C   0  0  0  0  0  0
   44.3440   -0.4500    9.3740 H   0  0  0  0  0  0
   42.3850    4.6440    9.2700 H   0  0  0  0  0  0
   44.7750    4.1550    8.4110 H   0  0  0  0  0  0
   45.9660    6.0860    7.8280 H   0  0  0  0  0  0
   46.1520    8.5670    7.9980 H   0  0  0  0  0  0
   44.9100    9.7420    9.8340 H   0  0  0  0  0  0
   43.3310    6.2130   11.2530 H   0  0  0  0  0  0
   46.4170    3.6970   10.0340 H   0  0  0  0  0  0
   45.9350    1.4860    9.8890 H   0  0  0  0  0  0
   44.6810    0.6260   12.0590 H   0  0  0  0  0  0
   44.9800    2.5920   13.6570 H   0  0  0  0  0  0
   44.5480    4.6280   12.1210 H   0  0  0  0  0  0
   46.2950    4.3760   12.1920 H   0  0  0  0  0  0
   40.5670    0.6650    7.6340 H   0  0  0  0  0  0
  1  2  1  0  0  0
  2 21  1  0  0  0
  2  3  2  0  0  0
  3  4  1  0  0  0
  3 22  1  0  0  0
  4 15  1  0  0  0
  4  5  2  0  0  0
  5  6  1  0  0  0
  5 19  1  0  0  0
  6  7  1  0  0  0
  6 23  1  0  0  0
  7  8  1  0  0  0
  7 14  1  0  0  0
  7 24  1  0  0  0
  8 13  1  0  0  0
  8  9  2  0  0  0
  9 10  1  0  0  0
  9 25  1  0  0  0
 10 11  2  0  0  0
 10 26  1  0  0  0
 11 12  1  0  0  0
 11 27  1  0  0  0
 12 13  2  0  0  0
 13 28  1  0  0  0
 14 18  1  0  0  0
 14 15  1  0  0  0
 14 29  1  0  0  0
 15 16  1  0  0  0
 15 30  1  0  0  0
 16 17  2  0  0  0
 16 31  1  0  0  0
 17 18  1  0  0  0
 17 32  1  0  0  0
 18 33  1  0  0  0
 18 34  1  0  0  0
 19 20  1  0  0  0
 19 21  2  0  0  0
 21 35  1  0  0  0
M  END
> <Source File Index>
1

> <stars>
0

> <PDB EXPDTA TEMPERATURE>
100

> <PDB RESOLUTION>
2.3

> <Source File>
protein_477_processed.pdb

> <Source Path>
C:\Users\yujie\Desktop\1b1\mutation

> <entry id>
28

> <PDB EXPDTA>
X-RAY DIFFRACTION

> <PDB ID>
7RAD

> <PDB TITLE>
CRYSTAL STRUCTURE ANALYSIS OF ALDH1B1

$$$$
