7RAD
                    3D
 Schrodinger Suite 2023-4.
 35 38  0  0  1  0            999 V2000
   42.2910   -1.3460    8.0870 F   0  0  0  0  0  0
   42.4770   -0.0540    8.4440 C   0  0  0  0  0  0
   43.6500    0.3240    9.1240 C   0  0  0  0  0  0
   43.8470    1.6680    9.5010 C   0  0  0  0  0  0
   42.8670    2.6350    9.1790 C   0  0  0  0  0  0
   43.0630    3.9810    9.5010 N   0  0  0  0  0  0
   44.4410    4.4280    9.4320 C   0  0  1  0  0  0
   44.5900    5.9430    9.5500 C   0  0  0  0  0  0
   45.4010    6.6470    8.6350 C   0  0  0  0  0  0
   45.4970    8.0470    8.7330 C   0  0  0  0  0  0
   44.7780    8.6960    9.7550 C   0  0  0  0  0  0
   43.9990    8.0410   10.6390 N   0  0  0  0  0  0
   43.9060    6.6990   10.5300 C   0  0  0  0  0  0
   45.3210    3.6030   10.4020 C   0  0  2  0  0  0
   45.0840    2.0620   10.2990 C   0  0  1  0  0  0
   44.9730    1.6240   11.7360 C   0  0  0  0  0  0
   45.0340    2.6370   12.5920 C   0  0  0  0  0  0
   45.1660    3.9630   11.9030 C   0  0  0  0  0  0
   41.6870    2.2520    8.5140 C   0  0  0  0  0  0
   40.7440    3.1790    8.2190 F   0  0  0  0  0  0
   41.4920    0.9080    8.1460 C   0  0  0  0  0  0
   44.3920   -0.4240    9.3660 H   0  0  0  0  0  0
   42.3380    4.6380    9.2400 H   0  0  0  0  0  0
   44.7720    4.1810    8.4240 H   0  0  0  0  0  0
   45.9370    6.1280    7.8580 H   0  0  0  0  0  0
   46.1060    8.6090    8.0420 H   0  0  0  0  0  0
   44.8270    9.7690    9.8640 H   0  0  0  0  0  0
   43.2440    6.2260   11.2390 H   0  0  0  0  0  0
   46.3650    3.7850   10.1440 H   0  0  0  0  0  0
   45.9540    1.5800    9.8500 H   0  0  0  0  0  0
   44.8250    0.5960   12.0220 H   0  0  0  0  0  0
   44.9380    2.5470   13.6640 H   0  0  0  0  0  0
   44.2580    4.5210   12.1170 H   0  0  0  0  0  0
   46.0200    4.5300   12.2720 H   0  0  0  0  0  0
   40.5880    0.6180    7.6340 H   0  0  0  0  0  0
  1  2  1  0  0  0
  2 21  1  0  0  0
  2  3  2  0  0  0
  3  4  1  0  0  0
  3 22  1  0  0  0
  4 15  1  0  0  0
  4  5  2  0  0  0
  5  6  1  0  0  0
  5 19  1  0  0  0
  6  7  1  0  0  0
  6 23  1  0  0  0
  7  8  1  0  0  0
  7 14  1  0  0  0
  7 24  1  0  0  0
  8 13  1  0  0  0
  8  9  2  0  0  0
  9 10  1  0  0  0
  9 25  1  0  0  0
 10 11  2  0  0  0
 10 26  1  0  0  0
 11 12  1  0  0  0
 11 27  1  0  0  0
 12 13  2  0  0  0
 13 28  1  0  0  0
 14 18  1  0  0  0
 14 15  1  0  0  0
 14 29  1  0  0  0
 15 16  1  0  0  0
 15 30  1  0  0  0
 16 17  2  0  0  0
 16 31  1  0  0  0
 17 18  1  0  0  0
 17 32  1  0  0  0
 18 33  1  0  0  0
 18 34  1  0  0  0
 19 20  1  0  0  0
 19 21  2  0  0  0
 21 35  1  0  0  0
M  END
> <r_pdb_PDB_EXPDTA_TEMPERATURE>
100

> <r_pdb_PDB_RESOLUTION>
2.3

> <s_pdb_PDB_EXPDTA>
X-RAY DIFFRACTION

> <s_pdb_PDB_ID>
7RAD

> <s_pdb_PDB_TITLE>
CRYSTAL STRUCTURE ANALYSIS OF ALDH1B1

> <s_pdb_PDB_format_version>
3.0

$$$$
