7RAD
                    3D
 Schrodinger Suite 2023-4.
 35 38  0  0  1  0            999 V2000
   42.3270   -1.3380    8.0470 F   0  0  0  0  0  0
   42.5240   -0.0480    8.4060 C   0  0  0  0  0  0
   43.7070    0.3200    9.0740 C   0  0  0  0  0  0
   43.9140    1.6620    9.4590 C   0  0  0  0  0  0
   42.9320    2.6320    9.1590 C   0  0  0  0  0  0
   43.1340    3.9720    9.5000 N   0  0  0  0  0  0
   44.5100    4.4220    9.4110 C   0  0  1  0  0  0
   44.6560    5.9370    9.5420 C   0  0  0  0  0  0
   45.4500    6.6520    8.6210 C   0  0  0  0  0  0
   45.5400    8.0520    8.7290 C   0  0  0  0  0  0
   44.8320    8.6890    9.7650 C   0  0  0  0  0  0
   44.0690    8.0230   10.6560 N   0  0  0  0  0  0
   43.9820    6.6810   10.5370 C   0  0  0  0  0  0
   45.4130    3.5850   10.3500 C   0  0  2  0  0  0
   45.1610    2.0450   10.2440 C   0  0  1  0  0  0
   45.0560    1.6040   11.6800 C   0  0  0  0  0  0
   45.1480    2.6090   12.5400 C   0  0  0  0  0  0
   45.3080    3.9360   11.8580 C   0  0  0  0  0  0
   41.7450    2.2610    8.5000 C   0  0  0  0  0  0
   40.8030    3.1920    8.2180 F   0  0  0  0  0  0
   41.5410    0.9190    8.1240 C   0  0  0  0  0  0
   44.4490   -0.4320    9.3000 H   0  0  0  0  0  0
   42.4060    4.6340    9.2550 H   0  0  0  0  0  0
   44.8190    4.1890    8.3930 H   0  0  0  0  0  0
   45.9760    6.1420    7.8310 H   0  0  0  0  0  0
   46.1360    8.6230    8.0340 H   0  0  0  0  0  0
   44.8760    9.7620    9.8810 H   0  0  0  0  0  0
   43.3310    6.1990   11.2500 H   0  0  0  0  0  0
   46.4490    3.7650   10.0610 H   0  0  0  0  0  0
   46.0230    1.5560    9.7880 H   0  0  0  0  0  0
   44.8860    0.5780   11.9640 H   0  0  0  0  0  0
   45.0600    2.5140   13.6120 H   0  0  0  0  0  0
   44.4300    4.5270   12.1020 H   0  0  0  0  0  0
   46.1940    4.4600   12.2130 H   0  0  0  0  0  0
   40.6310    0.6370    7.6180 H   0  0  0  0  0  0
  1  2  1  0  0  0
  2 21  1  0  0  0
  2  3  2  0  0  0
  3  4  1  0  0  0
  3 22  1  0  0  0
  4 15  1  0  0  0
  4  5  2  0  0  0
  5  6  1  0  0  0
  5 19  1  0  0  0
  6  7  1  0  0  0
  6 23  1  0  0  0
  7  8  1  0  0  0
  7 14  1  0  0  0
  7 24  1  0  0  0
  8 13  1  0  0  0
  8  9  2  0  0  0
  9 10  1  0  0  0
  9 25  1  0  0  0
 10 11  2  0  0  0
 10 26  1  0  0  0
 11 12  1  0  0  0
 11 27  1  0  0  0
 12 13  2  0  0  0
 13 28  1  0  0  0
 14 18  1  0  0  0
 14 15  1  0  0  0
 14 29  1  0  0  0
 15 16  1  0  0  0
 15 30  1  0  0  0
 16 17  2  0  0  0
 16 31  1  0  0  0
 17 18  1  0  0  0
 17 32  1  0  0  0
 18 33  1  0  0  0
 18 34  1  0  0  0
 19 20  1  0  0  0
 19 21  2  0  0  0
 21 35  1  0  0  0
M  END
> <r_pdb_PDB_EXPDTA_TEMPERATURE>
100

> <r_pdb_PDB_RESOLUTION>
2.3

> <s_pdb_PDB_EXPDTA>
X-RAY DIFFRACTION

> <s_pdb_PDB_ID>
7RAD

> <s_pdb_PDB_TITLE>
CRYSTAL STRUCTURE ANALYSIS OF ALDH1B1

> <s_pdb_PDB_format_version>
3.0

$$$$
