7RAD
                    3D
 Schrodinger Suite 2023-4.
 35 38  0  0  1  0            999 V2000
   42.2100   -1.3610    7.9490 F   0  0  0  0  0  0
   42.4230   -0.0800    8.3340 C   0  0  0  0  0  0
   43.6080    0.2640    9.0130 C   0  0  0  0  0  0
   43.8300    1.5970    9.4180 C   0  0  0  0  0  0
   42.8600    2.5850    9.1330 C   0  0  0  0  0  0
   43.0760    3.9150    9.4980 N   0  0  0  0  0  0
   44.4560    4.3550    9.3960 C   0  0  1  0  0  0
   44.6170    5.8670    9.5440 C   0  0  0  0  0  0
   45.4070    6.5870    8.6230 C   0  0  0  0  0  0
   45.5030    7.9850    8.7420 C   0  0  0  0  0  0
   44.8070    8.6170    9.7890 C   0  0  0  0  0  0
   44.0480    7.9470   10.6810 N   0  0  0  0  0  0
   43.9550    6.6060   10.5520 C   0  0  0  0  0  0
   45.3690    3.4950   10.3070 C   0  0  2  0  0  0
   45.0820    1.9610   10.2060 C   0  0  1  0  0  0
   44.9650    1.5250   11.6430 C   0  0  0  0  0  0
   45.1120    2.5260   12.5020 C   0  0  0  0  0  0
   45.3260    3.8440   11.8190 C   0  0  0  0  0  0
   41.6700    2.2350    8.4630 C   0  0  0  0  0  0
   40.7420    3.1840    8.1970 F   0  0  0  0  0  0
   41.4540    0.9030    8.0620 C   0  0  0  0  0  0
   44.3420   -0.4980    9.2310 H   0  0  0  0  0  0
   42.3560    4.5870    9.2600 H   0  0  0  0  0  0
   44.7470    4.1340    8.3700 H   0  0  0  0  0  0
   45.9240    6.0830    7.8250 H   0  0  0  0  0  0
   46.0960    8.5600    8.0470 H   0  0  0  0  0  0
   44.8550    9.6890    9.9130 H   0  0  0  0  0  0
   43.3070    6.1200   11.2650 H   0  0  0  0  0  0
   46.3990    3.6560    9.9830 H   0  0  0  0  0  0
   45.9350    1.4510    9.7550 H   0  0  0  0  0  0
   44.7520    0.5080   11.9270 H   0  0  0  0  0  0
   45.0340    2.4330   13.5750 H   0  0  0  0  0  0
   44.4930    4.4860   12.0920 H   0  0  0  0  0  0
   46.2520    4.3100   12.1520 H   0  0  0  0  0  0
   40.5450    0.6330    7.5440 H   0  0  0  0  0  0
  1  2  1  0  0  0
  2 21  1  0  0  0
  2  3  2  0  0  0
  3  4  1  0  0  0
  3 22  1  0  0  0
  4 15  1  0  0  0
  4  5  2  0  0  0
  5  6  1  0  0  0
  5 19  1  0  0  0
  6  7  1  0  0  0
  6 23  1  0  0  0
  7  8  1  0  0  0
  7 14  1  0  0  0
  7 24  1  0  0  0
  8 13  1  0  0  0
  8  9  2  0  0  0
  9 10  1  0  0  0
  9 25  1  0  0  0
 10 11  2  0  0  0
 10 26  1  0  0  0
 11 12  1  0  0  0
 11 27  1  0  0  0
 12 13  2  0  0  0
 13 28  1  0  0  0
 14 18  1  0  0  0
 14 15  1  0  0  0
 14 29  1  0  0  0
 15 16  1  0  0  0
 15 30  1  0  0  0
 16 17  2  0  0  0
 16 31  1  0  0  0
 17 18  1  0  0  0
 17 32  1  0  0  0
 18 33  1  0  0  0
 18 34  1  0  0  0
 19 20  1  0  0  0
 19 21  2  0  0  0
 21 35  1  0  0  0
M  END
> <r_pdb_PDB_EXPDTA_TEMPERATURE>
100

> <r_pdb_PDB_RESOLUTION>
2.3

> <s_pdb_PDB_EXPDTA>
X-RAY DIFFRACTION

> <s_pdb_PDB_ID>
7RAD

> <s_pdb_PDB_TITLE>
CRYSTAL STRUCTURE ANALYSIS OF ALDH1B1

> <s_pdb_PDB_format_version>
3.0

$$$$
