7RAD
                    3D
 Schrodinger Suite 2023-4.
 35 38  0  0  1  0            999 V2000
   42.2840   -1.3520    8.0800 F   0  0  0  0  0  0
   42.4860   -0.0610    8.4340 C   0  0  0  0  0  0
   43.6660    0.3030    9.1080 C   0  0  0  0  0  0
   43.8800    1.6460    9.4850 C   0  0  0  0  0  0
   42.9070    2.6220    9.1710 C   0  0  0  0  0  0
   43.1160    3.9620    9.5050 N   0  0  0  0  0  0
   44.4960    4.4040    9.4210 C   0  0  1  0  0  0
   44.6480    5.9180    9.5460 C   0  0  0  0  0  0
   45.4490    6.6270    8.6250 C   0  0  0  0  0  0
   45.5420    8.0260    8.7260 C   0  0  0  0  0  0
   44.8310    8.6720    9.7550 C   0  0  0  0  0  0
   44.0620    8.0120   10.6460 N   0  0  0  0  0  0
   43.9720    6.6710   10.5340 C   0  0  0  0  0  0
   45.3900    3.5650   10.3680 C   0  0  2  0  0  0
   45.1220    2.0270   10.2770 C   0  0  1  0  0  0
   44.9990    1.6000   11.7160 C   0  0  0  0  0  0
   45.1060    2.6130   12.5680 C   0  0  0  0  0  0
   45.2920    3.9300   11.8740 C   0  0  0  0  0  0
   41.7230    2.2540    8.5050 C   0  0  0  0  0  0
   40.7900    3.1900    8.2100 F   0  0  0  0  0  0
   41.5120    0.9110    8.1370 C   0  0  0  0  0  0
   44.4020   -0.4520    9.3470 H   0  0  0  0  0  0
   42.3950    4.6270    9.2510 H   0  0  0  0  0  0
   44.8090    4.1640    8.4060 H   0  0  0  0  0  0
   45.9780    6.1120    7.8410 H   0  0  0  0  0  0
   46.1430    8.5930    8.0310 H   0  0  0  0  0  0
   44.8780    9.7450    9.8660 H   0  0  0  0  0  0
   43.3140    6.1940   11.2450 H   0  0  0  0  0  0
   46.4280    3.7320   10.0760 H   0  0  0  0  0  0
   45.9840    1.5230    9.8350 H   0  0  0  0  0  0
   44.8060    0.5810   12.0080 H   0  0  0  0  0  0
   45.0110    2.5300   13.6390 H   0  0  0  0  0  0
   44.4260    4.5410   12.1130 H   0  0  0  0  0  0
   46.1880    4.4400   12.2230 H   0  0  0  0  0  0
   40.6050    0.6310    7.6260 H   0  0  0  0  0  0
  1  2  1  0  0  0
  2 21  1  0  0  0
  2  3  2  0  0  0
  3  4  1  0  0  0
  3 22  1  0  0  0
  4 15  1  0  0  0
  4  5  2  0  0  0
  5  6  1  0  0  0
  5 19  1  0  0  0
  6  7  1  0  0  0
  6 23  1  0  0  0
  7  8  1  0  0  0
  7 14  1  0  0  0
  7 24  1  0  0  0
  8 13  1  0  0  0
  8  9  2  0  0  0
  9 10  1  0  0  0
  9 25  1  0  0  0
 10 11  2  0  0  0
 10 26  1  0  0  0
 11 12  1  0  0  0
 11 27  1  0  0  0
 12 13  2  0  0  0
 13 28  1  0  0  0
 14 18  1  0  0  0
 14 15  1  0  0  0
 14 29  1  0  0  0
 15 16  1  0  0  0
 15 30  1  0  0  0
 16 17  2  0  0  0
 16 31  1  0  0  0
 17 18  1  0  0  0
 17 32  1  0  0  0
 18 33  1  0  0  0
 18 34  1  0  0  0
 19 20  1  0  0  0
 19 21  2  0  0  0
 21 35  1  0  0  0
M  END
> <r_pdb_PDB_EXPDTA_TEMPERATURE>
100

> <r_pdb_PDB_RESOLUTION>
2.3

> <s_pdb_PDB_EXPDTA>
X-RAY DIFFRACTION

> <s_pdb_PDB_ID>
7RAD

> <s_pdb_PDB_TITLE>
CRYSTAL STRUCTURE ANALYSIS OF ALDH1B1

> <s_pdb_PDB_format_version>
3.0

$$$$
