7RAD
                    3D
 Schrodinger Suite 2023-4.
 35 38  0  0  1  0            999 V2000
   42.4010   -1.2710    8.1080 F   0  0  0  0  0  0
   42.6090    0.0230    8.4460 C   0  0  0  0  0  0
   43.7770    0.3850    9.1420 C   0  0  0  0  0  0
   43.9950    1.7320    9.5060 C   0  0  0  0  0  0
   43.0410    2.7130    9.1510 C   0  0  0  0  0  0
   43.2540    4.0570    9.4690 N   0  0  0  0  0  0
   44.6410    4.4880    9.4510 C   0  0  1  0  0  0
   44.8100    5.9960    9.6060 C   0  0  0  0  0  0
   45.7540    6.6860    8.8180 C   0  0  0  0  0  0
   45.8650    8.0830    8.9420 C   0  0  0  0  0  0
   45.0270    8.7410    9.8620 C   0  0  0  0  0  0
   44.1280    8.0970   10.6340 N   0  0  0  0  0  0
   44.0260    6.7580   10.5030 C   0  0  0  0  0  0
   45.4820    3.6440   10.4370 C   0  0  2  0  0  0
   45.2210    2.1070   10.3290 C   0  0  1  0  0  0
   45.0680    1.6750   11.7640 C   0  0  0  0  0  0
   45.1230    2.6890   12.6190 C   0  0  0  0  0  0
   45.3000    4.0130   11.9320 C   0  0  0  0  0  0
   41.8680    2.3460    8.4640 C   0  0  0  0  0  0
   40.9500    3.2850    8.1330 F   0  0  0  0  0  0
   41.6530    0.9990    8.1120 C   0  0  0  0  0  0
   44.4980   -0.3730    9.4090 H   0  0  0  0  0  0
   42.5440    4.7260    9.1960 H   0  0  0  0  0  0
   45.0000    4.2540    8.4510 H   0  0  0  0  0  0
   46.3790    6.1580    8.1160 H   0  0  0  0  0  0
   46.5730    8.6370    8.3440 H   0  0  0  0  0  0
   45.0810    9.8130    9.9820 H   0  0  0  0  0  0
   43.2830    6.2880   11.1300 H   0  0  0  0  0  0
   46.5350    3.8130   10.2050 H   0  0  0  0  0  0
   46.0920    1.6080    9.9020 H   0  0  0  0  0  0
   44.8970    0.6500   12.0500 H   0  0  0  0  0  0
   44.9980    2.6030   13.6880 H   0  0  0  0  0  0
   44.4020    4.5980   12.1200 H   0  0  0  0  0  0
   46.1610    4.5590   12.3150 H   0  0  0  0  0  0
   40.7550    0.7210    7.5840 H   0  0  0  0  0  0
  1  2  1  0  0  0
  2 21  1  0  0  0
  2  3  2  0  0  0
  3  4  1  0  0  0
  3 22  1  0  0  0
  4 15  1  0  0  0
  4  5  2  0  0  0
  5  6  1  0  0  0
  5 19  1  0  0  0
  6  7  1  0  0  0
  6 23  1  0  0  0
  7  8  1  0  0  0
  7 14  1  0  0  0
  7 24  1  0  0  0
  8 13  1  0  0  0
  8  9  2  0  0  0
  9 10  1  0  0  0
  9 25  1  0  0  0
 10 11  2  0  0  0
 10 26  1  0  0  0
 11 12  1  0  0  0
 11 27  1  0  0  0
 12 13  2  0  0  0
 13 28  1  0  0  0
 14 18  1  0  0  0
 14 15  1  0  0  0
 14 29  1  0  0  0
 15 16  1  0  0  0
 15 30  1  0  0  0
 16 17  2  0  0  0
 16 31  1  0  0  0
 17 18  1  0  0  0
 17 32  1  0  0  0
 18 33  1  0  0  0
 18 34  1  0  0  0
 19 20  1  0  0  0
 19 21  2  0  0  0
 21 35  1  0  0  0
M  END
> <r_pdb_PDB_EXPDTA_TEMPERATURE>
100

> <r_pdb_PDB_RESOLUTION>
2.3

> <s_pdb_PDB_EXPDTA>
X-RAY DIFFRACTION

> <s_pdb_PDB_ID>
7RAD

> <s_pdb_PDB_TITLE>
CRYSTAL STRUCTURE ANALYSIS OF ALDH1B1

> <s_pdb_PDB_format_version>
3.0

$$$$
