7RAD
                    3D
 Schrodinger Suite 2023-4.
 35 38  0  0  1  0            999 V2000
   42.3140   -1.3470    8.0540 F   0  0  0  0  0  0
   42.5110   -0.0580    8.4160 C   0  0  0  0  0  0
   43.6910    0.3080    9.0930 C   0  0  0  0  0  0
   43.8980    1.6480    9.4770 C   0  0  0  0  0  0
   42.9220    2.6230    9.1690 C   0  0  0  0  0  0
   43.1260    3.9610    9.5090 N   0  0  0  0  0  0
   44.5040    4.4070    9.4220 C   0  0  1  0  0  0
   44.6540    5.9220    9.5470 C   0  0  0  0  0  0
   45.4490    6.6310    8.6220 C   0  0  0  0  0  0
   45.5400    8.0310    8.7220 C   0  0  0  0  0  0
   44.8330    8.6750    9.7540 C   0  0  0  0  0  0
   44.0690    8.0150   10.6480 N   0  0  0  0  0  0
   43.9810    6.6730   10.5380 C   0  0  0  0  0  0
   45.4010    3.5700   10.3680 C   0  0  2  0  0  0
   45.1400    2.0310   10.2710 C   0  0  1  0  0  0
   45.0210    1.5990   11.7080 C   0  0  0  0  0  0
   45.1210    2.6090   12.5620 C   0  0  0  0  0  0
   45.2990    3.9300   11.8740 C   0  0  0  0  0  0
   41.7370    2.2530    8.5020 C   0  0  0  0  0  0
   40.8020    3.1880    8.2120 F   0  0  0  0  0  0
   41.5330    0.9120    8.1270 C   0  0  0  0  0  0
   44.4290   -0.4450    9.3250 H   0  0  0  0  0  0
   42.4010    4.6250    9.2580 H   0  0  0  0  0  0
   44.8160    4.1690    8.4070 H   0  0  0  0  0  0
   45.9760    6.1170    7.8360 H   0  0  0  0  0  0
   46.1380    8.5980    8.0250 H   0  0  0  0  0  0
   44.8790    9.7480    9.8640 H   0  0  0  0  0  0
   43.3270    6.1960   11.2520 H   0  0  0  0  0  0
   46.4390    3.7420   10.0780 H   0  0  0  0  0  0
   46.0030    1.5330    9.8250 H   0  0  0  0  0  0
   44.8350    0.5770   11.9960 H   0  0  0  0  0  0
   45.0260    2.5210   13.6340 H   0  0  0  0  0  0
   44.4270    4.5330   12.1130 H   0  0  0  0  0  0
   46.1900    4.4460   12.2260 H   0  0  0  0  0  0
   40.6260    0.6320    7.6140 H   0  0  0  0  0  0
  1  2  1  0  0  0
  2 21  1  0  0  0
  2  3  2  0  0  0
  3  4  1  0  0  0
  3 22  1  0  0  0
  4 15  1  0  0  0
  4  5  2  0  0  0
  5  6  1  0  0  0
  5 19  1  0  0  0
  6  7  1  0  0  0
  6 23  1  0  0  0
  7  8  1  0  0  0
  7 14  1  0  0  0
  7 24  1  0  0  0
  8 13  1  0  0  0
  8  9  2  0  0  0
  9 10  1  0  0  0
  9 25  1  0  0  0
 10 11  2  0  0  0
 10 26  1  0  0  0
 11 12  1  0  0  0
 11 27  1  0  0  0
 12 13  2  0  0  0
 13 28  1  0  0  0
 14 18  1  0  0  0
 14 15  1  0  0  0
 14 29  1  0  0  0
 15 16  1  0  0  0
 15 30  1  0  0  0
 16 17  2  0  0  0
 16 31  1  0  0  0
 17 18  1  0  0  0
 17 32  1  0  0  0
 18 33  1  0  0  0
 18 34  1  0  0  0
 19 20  1  0  0  0
 19 21  2  0  0  0
 21 35  1  0  0  0
M  END
> <r_pdb_PDB_EXPDTA_TEMPERATURE>
100

> <r_pdb_PDB_RESOLUTION>
2.3

> <s_pdb_PDB_EXPDTA>
X-RAY DIFFRACTION

> <s_pdb_PDB_ID>
7RAD

> <s_pdb_PDB_TITLE>
CRYSTAL STRUCTURE ANALYSIS OF ALDH1B1

> <s_pdb_PDB_format_version>
3.0

$$$$
