protein_296_ligand
                    3D
 Schrodinger Suite 2024-1.
 36 39  0  0  1  0            999 V2000
   41.6049   -1.1370    8.3332 F   0  0  0  0  0  0
   42.0402    0.1271    8.5285 C   0  0  0  0  0  0
   43.3495    0.3492    8.9719 C   0  0  0  0  0  0
   43.8044    1.6614    9.2015 C   0  0  0  0  0  0
   42.9642    2.7657    8.9643 C   0  0  0  0  0  0
   43.3987    4.0856    9.1537 N   0  0  0  0  0  0
   44.7030    4.4078    9.7370 C   0  0  1  0  0  0
   44.6048    5.1740   11.0583 C   0  0  0  0  0  0
   44.3883    4.4993   12.2738 C   0  0  0  0  0  0
   44.4406    5.2105   13.4874 C   0  0  0  0  0  0
   44.6942    6.5861   13.4877 C   0  0  0  0  0  0
   44.8251    7.2239   12.3022 N   0  3  0  0  0  0
   44.7755    6.5761   11.1082 C   0  0  0  0  0  0
   45.7868    3.2676    9.6604 C   0  0  2  0  0  0
   45.2090    1.8391    9.6926 C   0  0  1  0  0  0
   45.4126    1.4079   11.1126 C   0  0  0  0  0  0
   46.3869    2.0987   11.6852 C   0  0  0  0  0  0
   46.8601    3.2101   10.7960 C   0  0  0  0  0  0
   41.6439    2.5296    8.5178 C   0  0  0  0  0  0
   40.8137    3.5690    8.2742 F   0  0  0  0  0  0
   41.1798    1.2160    8.3170 C   0  0  0  0  0  0
   44.0098   -0.4912    9.1365 H   0  0  0  0  0  0
   42.6387    4.7688    9.2109 H   0  0  0  0  0  0
   45.0895    5.1581    9.0463 H   0  0  0  0  0  0
   44.2001    3.4365   12.2869 H   0  0  0  0  0  0
   44.2922    4.6797   14.4211 H   0  0  0  0  0  0
   44.7968    7.1593   14.4031 H   0  0  0  0  0  0
   44.9407    7.1776   10.2268 H   0  0  0  0  0  0
   46.2885    3.3829    8.6981 H   0  0  0  0  0  0
   45.8494    1.1900    9.0904 H   0  0  0  0  0  0
   44.8470    0.6150   11.5768 H   0  0  0  0  0  0
   46.7619    1.9479   12.6830 H   0  0  0  0  0  0
   47.8478    2.9500   10.4108 H   0  0  0  0  0  0
   46.9541    4.0950   11.4114 H   0  0  0  0  0  0
   40.1653    1.0391    8.0006 H   0  0  0  0  0  0
   45.0101    8.2261   12.3217 H   0  0  0  0  0  0
  1  2  1  0  0  0
  2 21  1  0  0  0
  2  3  2  0  0  0
  3  4  1  0  0  0
  3 22  1  0  0  0
  4 15  1  0  0  0
  4  5  2  0  0  0
  5  6  1  0  0  0
  5 19  1  0  0  0
  6  7  1  0  0  0
  6 23  1  0  0  0
  7  8  1  0  0  0
  7 14  1  0  0  0
  7 24  1  0  0  0
  8 13  1  0  0  0
  8  9  2  0  0  0
  9 10  1  0  0  0
  9 25  1  0  0  0
 10 11  2  0  0  0
 10 26  1  0  0  0
 11 12  1  0  0  0
 11 27  1  0  0  0
 12 13  2  0  0  0
 12 36  1  0  0  0
 13 28  1  0  0  0
 14 18  1  0  0  0
 14 15  1  0  0  0
 14 29  1  0  0  0
 15 16  1  0  0  0
 15 30  1  0  0  0
 16 17  2  0  0  0
 16 31  1  0  0  0
 17 18  1  0  0  0
 17 32  1  0  0  0
 18 33  1  0  0  0
 18 34  1  0  0  0
 19 20  1  0  0  0
 19 21  2  0  0  0
 21 35  1  0  0  0
M  CHG  1  12   1
M  END
> <Tot Q>
1

> <flags>
0

> <Source File Index>
1

> <stars>
0

> <subgroup collapsed>
0

> <Ionization Penalty>
1.5065

> <State Penalty>
1.5065

> <docking score>
-7.29906

> <glide emodel>
-57.4641

> <glide gscore>
-8.80556

> <PDB EXPDTA TEMPERATURE>
100

> <PDB RESOLUTION>
2.3

> <Source File>
glide-dock_SP_296_pv.maegz

> <Source Path>
C:\Users\yujie\Desktop\1b1\mutation\glide-dock_SP_296

> <entry id>
17

> <job name>
glide-dock_SP_296

> <subgroup title>
glide-dock_SP_296_pv

> <subgroupid>
glide-dock_SP_296_pv

> <PDB EXPDTA>
X-RAY DIFFRACTION

> <PDB ID>
7RAD

> <PDB TITLE>
CRYSTAL STRUCTURE ANALYSIS OF ALDH1B1

$$$$
