7RAD
                    3D
 Schrodinger Suite 2023-4.
 35 38  0  0  1  0            999 V2000
   42.3390   -1.3430    8.0560 F   0  0  0  0  0  0
   42.5330   -0.0560    8.4260 C   0  0  0  0  0  0
   43.7150    0.3110    9.0950 C   0  0  0  0  0  0
   43.9180    1.6490    9.4890 C   0  0  0  0  0  0
   42.9340    2.6210    9.1980 C   0  0  0  0  0  0
   43.1340    3.9580    9.5480 N   0  0  0  0  0  0
   44.5090    4.4100    9.4410 C   0  0  1  0  0  0
   44.6540    5.9240    9.5700 C   0  0  0  0  0  0
   45.4530    6.6380    8.6530 C   0  0  0  0  0  0
   45.5400    8.0380    8.7590 C   0  0  0  0  0  0
   44.8250    8.6760    9.7900 C   0  0  0  0  0  0
   44.0570    8.0110   10.6770 N   0  0  0  0  0  0
   43.9720    6.6690   10.5600 C   0  0  0  0  0  0
   45.4260    3.5730   10.3690 C   0  0  2  0  0  0
   45.1630    2.0330   10.2770 C   0  0  1  0  0  0
   45.0420    1.6050   11.7160 C   0  0  0  0  0  0
   45.1570    2.6160   12.5680 C   0  0  0  0  0  0
   45.3530    3.9330   11.8760 C   0  0  0  0  0  0
   41.7480    2.2500    8.5380 C   0  0  0  0  0  0
   40.8040    3.1830    8.2650 F   0  0  0  0  0  0
   41.5470    0.9120    8.1530 C   0  0  0  0  0  0
   44.4600   -0.4400    9.3150 H   0  0  0  0  0  0
   42.4070    4.6180    9.2940 H   0  0  0  0  0  0
   44.8060    4.1780    8.4190 H   0  0  0  0  0  0
   45.9850    6.1280    7.8680 H   0  0  0  0  0  0
   46.1390    8.6090    8.0660 H   0  0  0  0  0  0
   44.8670    9.7500    9.9040 H   0  0  0  0  0  0
   43.3170    6.1860   11.2690 H   0  0  0  0  0  0
   46.4570    3.7460   10.0580 H   0  0  0  0  0  0
   46.0250    1.5320    9.8340 H   0  0  0  0  0  0
   44.8430    0.5870   12.0070 H   0  0  0  0  0  0
   45.0640    2.5310   13.6400 H   0  0  0  0  0  0
   44.5020    4.5590   12.1300 H   0  0  0  0  0  0
   46.2630    4.4250   12.2170 H   0  0  0  0  0  0
   40.6370    0.6300    7.6470 H   0  0  0  0  0  0
  1  2  1  0  0  0
  2 21  1  0  0  0
  2  3  2  0  0  0
  3  4  1  0  0  0
  3 22  1  0  0  0
  4 15  1  0  0  0
  4  5  2  0  0  0
  5  6  1  0  0  0
  5 19  1  0  0  0
  6  7  1  0  0  0
  6 23  1  0  0  0
  7  8  1  0  0  0
  7 14  1  0  0  0
  7 24  1  0  0  0
  8 13  1  0  0  0
  8  9  2  0  0  0
  9 10  1  0  0  0
  9 25  1  0  0  0
 10 11  2  0  0  0
 10 26  1  0  0  0
 11 12  1  0  0  0
 11 27  1  0  0  0
 12 13  2  0  0  0
 13 28  1  0  0  0
 14 18  1  0  0  0
 14 15  1  0  0  0
 14 29  1  0  0  0
 15 16  1  0  0  0
 15 30  1  0  0  0
 16 17  2  0  0  0
 16 31  1  0  0  0
 17 18  1  0  0  0
 17 32  1  0  0  0
 18 33  1  0  0  0
 18 34  1  0  0  0
 19 20  1  0  0  0
 19 21  2  0  0  0
 21 35  1  0  0  0
M  END
> <r_pdb_PDB_EXPDTA_TEMPERATURE>
100

> <r_pdb_PDB_RESOLUTION>
2.3

> <s_pdb_PDB_EXPDTA>
X-RAY DIFFRACTION

> <s_pdb_PDB_ID>
7RAD

> <s_pdb_PDB_TITLE>
CRYSTAL STRUCTURE ANALYSIS OF ALDH1B1

> <s_pdb_PDB_format_version>
3.0

$$$$
