7RAD
                    3D
 Schrodinger Suite 2023-4.
 35 38  0  0  1  0            999 V2000
   42.2590   -1.3170    8.1800 F   0  0  0  0  0  0
   42.4790   -0.0180    8.4920 C   0  0  0  0  0  0
   43.6580    0.3500    9.1640 C   0  0  0  0  0  0
   43.8880    1.7010    9.5010 C   0  0  0  0  0  0
   42.9340    2.6820    9.1480 C   0  0  0  0  0  0
   43.1530    4.0260    9.4560 N   0  0  0  0  0  0
   44.5380    4.4540    9.3900 C   0  0  1  0  0  0
   44.6980    5.9700    9.4940 C   0  0  0  0  0  0
   45.5070    6.6610    8.5670 C   0  0  0  0  0  0
   45.6050    8.0620    8.6470 C   0  0  0  0  0  0
   44.8920    8.7250    9.6630 C   0  0  0  0  0  0
   44.1150    8.0830   10.5590 N   0  0  0  0  0  0
   44.0200    6.7400   10.4670 C   0  0  0  0  0  0
   45.4160    3.6200   10.3590 C   0  0  2  0  0  0
   45.1250    2.0850   10.3000 C   0  0  1  0  0  0
   44.9710    1.6930   11.7460 C   0  0  0  0  0  0
   45.0900    2.7210   12.5760 C   0  0  0  0  0  0
   45.3250    4.0170   11.8570 C   0  0  0  0  0  0
   41.7540    2.3110    8.4750 C   0  0  0  0  0  0
   40.8430    3.2530    8.1360 F   0  0  0  0  0  0
   41.5250    0.9600    8.1500 C   0  0  0  0  0  0
   44.3800   -0.4060    9.4330 H   0  0  0  0  0  0
   42.4430    4.6930    9.1790 H   0  0  0  0  0  0
   44.8620    4.1980    8.3820 H   0  0  0  0  0  0
   46.0380    6.1330    7.7940 H   0  0  0  0  0  0
   46.2140    8.6150    7.9480 H   0  0  0  0  0  0
   44.9440    9.8000    9.7580 H   0  0  0  0  0  0
   43.3560    6.2780   11.1820 H   0  0  0  0  0  0
   46.4570    3.7670   10.0650 H   0  0  0  0  0  0
   45.9850    1.5570    9.8850 H   0  0  0  0  0  0
   44.7490    0.6850   12.0560 H   0  0  0  0  0  0
   44.9770    2.6650   13.6480 H   0  0  0  0  0  0
   44.4840    4.6670   12.0810 H   0  0  0  0  0  0
   46.2390    4.4980   12.2030 H   0  0  0  0  0  0
   40.6200    0.6770    7.6360 H   0  0  0  0  0  0
  1  2  1  0  0  0
  2 21  1  0  0  0
  2  3  2  0  0  0
  3  4  1  0  0  0
  3 22  1  0  0  0
  4 15  1  0  0  0
  4  5  2  0  0  0
  5  6  1  0  0  0
  5 19  1  0  0  0
  6  7  1  0  0  0
  6 23  1  0  0  0
  7  8  1  0  0  0
  7 14  1  0  0  0
  7 24  1  0  0  0
  8 13  1  0  0  0
  8  9  2  0  0  0
  9 10  1  0  0  0
  9 25  1  0  0  0
 10 11  2  0  0  0
 10 26  1  0  0  0
 11 12  1  0  0  0
 11 27  1  0  0  0
 12 13  2  0  0  0
 13 28  1  0  0  0
 14 18  1  0  0  0
 14 15  1  0  0  0
 14 29  1  0  0  0
 15 16  1  0  0  0
 15 30  1  0  0  0
 16 17  2  0  0  0
 16 31  1  0  0  0
 17 18  1  0  0  0
 17 32  1  0  0  0
 18 33  1  0  0  0
 18 34  1  0  0  0
 19 20  1  0  0  0
 19 21  2  0  0  0
 21 35  1  0  0  0
M  END
> <r_pdb_PDB_EXPDTA_TEMPERATURE>
100

> <r_pdb_PDB_RESOLUTION>
2.3

> <s_pdb_PDB_EXPDTA>
X-RAY DIFFRACTION

> <s_pdb_PDB_ID>
7RAD

> <s_pdb_PDB_TITLE>
CRYSTAL STRUCTURE ANALYSIS OF ALDH1B1

> <s_pdb_PDB_format_version>
3.0

$$$$
