7RAD
                    3D
 Schrodinger Suite 2023-4.
 35 38  0  0  1  0            999 V2000
   42.2800   -1.2900    8.0650 F   0  0  0  0  0  0
   42.4880    0.0020    8.4160 C   0  0  0  0  0  0
   43.6640    0.3600    9.0990 C   0  0  0  0  0  0
   43.8830    1.7030    9.4730 C   0  0  0  0  0  0
   42.9200    2.6850    9.1470 C   0  0  0  0  0  0
   43.1350    4.0240    9.4820 N   0  0  0  0  0  0
   44.5190    4.4540    9.4100 C   0  0  1  0  0  0
   44.6860    5.9690    9.5240 C   0  0  0  0  0  0
   45.4730    6.6630    8.5800 C   0  0  0  0  0  0
   45.5760    8.0640    8.6630 C   0  0  0  0  0  0
   44.8870    8.7240    9.6970 C   0  0  0  0  0  0
   44.1300    8.0810   10.6090 N   0  0  0  0  0  0
   44.0350    6.7360   10.5170 C   0  0  0  0  0  0
   45.3980    3.6110   10.3680 C   0  0  2  0  0  0
   45.1230    2.0740   10.2730 C   0  0  1  0  0  0
   44.9890    1.6450   11.7100 C   0  0  0  0  0  0
   45.0860    2.6580   12.5630 C   0  0  0  0  0  0
   45.2850    3.9740   11.8720 C   0  0  0  0  0  0
   41.7400    2.3230    8.4700 C   0  0  0  0  0  0
   40.8200    3.2660    8.1580 F   0  0  0  0  0  0
   41.5240    0.9790    8.1050 C   0  0  0  0  0  0
   44.3930   -0.3980    9.3440 H   0  0  0  0  0  0
   42.4240    4.6960    9.2150 H   0  0  0  0  0  0
   44.8380    4.2050    8.3990 H   0  0  0  0  0  0
   45.9840    6.1380    7.7910 H   0  0  0  0  0  0
   46.1690    8.6180    7.9510 H   0  0  0  0  0  0
   44.9420    9.7980    9.7940 H   0  0  0  0  0  0
   43.3870    6.2740   11.2460 H   0  0  0  0  0  0
   46.4400    3.7720   10.0880 H   0  0  0  0  0  0
   45.9840    1.5680    9.8350 H   0  0  0  0  0  0
   44.7990    0.6240   11.9970 H   0  0  0  0  0  0
   44.9820    2.5740   13.6340 H   0  0  0  0  0  0
   44.4210    4.5910   12.1000 H   0  0  0  0  0  0
   46.1800    4.4810   12.2310 H   0  0  0  0  0  0
   40.6210    0.7030    7.5850 H   0  0  0  0  0  0
  1  2  1  0  0  0
  2 21  1  0  0  0
  2  3  2  0  0  0
  3  4  1  0  0  0
  3 22  1  0  0  0
  4 15  1  0  0  0
  4  5  2  0  0  0
  5  6  1  0  0  0
  5 19  1  0  0  0
  6  7  1  0  0  0
  6 23  1  0  0  0
  7  8  1  0  0  0
  7 14  1  0  0  0
  7 24  1  0  0  0
  8 13  1  0  0  0
  8  9  2  0  0  0
  9 10  1  0  0  0
  9 25  1  0  0  0
 10 11  2  0  0  0
 10 26  1  0  0  0
 11 12  1  0  0  0
 11 27  1  0  0  0
 12 13  2  0  0  0
 13 28  1  0  0  0
 14 18  1  0  0  0
 14 15  1  0  0  0
 14 29  1  0  0  0
 15 16  1  0  0  0
 15 30  1  0  0  0
 16 17  2  0  0  0
 16 31  1  0  0  0
 17 18  1  0  0  0
 17 32  1  0  0  0
 18 33  1  0  0  0
 18 34  1  0  0  0
 19 20  1  0  0  0
 19 21  2  0  0  0
 21 35  1  0  0  0
M  END
> <r_pdb_PDB_EXPDTA_TEMPERATURE>
100

> <r_pdb_PDB_RESOLUTION>
2.3

> <s_pdb_PDB_EXPDTA>
X-RAY DIFFRACTION

> <s_pdb_PDB_ID>
7RAD

> <s_pdb_PDB_TITLE>
CRYSTAL STRUCTURE ANALYSIS OF ALDH1B1

> <s_pdb_PDB_format_version>
3.0

$$$$
