7RAD
                    3D
 Schrodinger Suite 2023-4.
 35 38  0  0  1  0            999 V2000
   42.3050   -1.3460    8.0920 F   0  0  0  0  0  0
   42.5000   -0.0500    8.4260 C   0  0  0  0  0  0
   43.6710    0.3310    9.1090 C   0  0  0  0  0  0
   43.8790    1.6800    9.4600 C   0  0  0  0  0  0
   42.9110    2.6510    9.1070 C   0  0  0  0  0  0
   43.1140    3.9990    9.4010 N   0  0  0  0  0  0
   44.4940    4.4430    9.3640 C   0  0  1  0  0  0
   44.6450    5.9580    9.4790 C   0  0  0  0  0  0
   45.4570    6.6590    8.5630 C   0  0  0  0  0  0
   45.5580    8.0580    8.6600 C   0  0  0  0  0  0
   44.8420    8.7110    9.6800 C   0  0  0  0  0  0
   44.0600    8.0600   10.5650 N   0  0  0  0  0  0
   43.9630    6.7190   10.4570 C   0  0  0  0  0  0
   45.3400    3.6220   10.3650 C   0  0  2  0  0  0
   45.1130    2.0800   10.2600 C   0  0  1  0  0  0
   45.0030    1.6430   11.6980 C   0  0  0  0  0  0
   45.0280    2.6600   12.5510 C   0  0  0  0  0  0
   45.1220    3.9860   11.8570 C   0  0  0  0  0  0
   41.7320    2.2640    8.4410 C   0  0  0  0  0  0
   40.8020    3.1950    8.1200 F   0  0  0  0  0  0
   41.5270    0.9160    8.1010 C   0  0  0  0  0  0
   44.4040   -0.4180    9.3700 H   0  0  0  0  0  0
   42.3950    4.6590    9.1300 H   0  0  0  0  0  0
   44.8510    4.1860    8.3680 H   0  0  0  0  0  0
   45.9930    6.1380    7.7860 H   0  0  0  0  0  0
   46.1710    8.6180    7.9690 H   0  0  0  0  0  0
   44.8960    9.7840    9.7890 H   0  0  0  0  0  0
   43.2970    6.2510   11.1650 H   0  0  0  0  0  0
   46.3930    3.8060   10.1490 H   0  0  0  0  0  0
   45.9860    1.6030    9.8110 H   0  0  0  0  0  0
   44.8800    0.6120   11.9870 H   0  0  0  0  0  0
   44.9240    2.5730   13.6230 H   0  0  0  0  0  0
   44.1770    4.4930   12.0340 H   0  0  0  0  0  0
   45.9280    4.6070   12.2440 H   0  0  0  0  0  0
   40.6260    0.6240    7.5860 H   0  0  0  0  0  0
  1  2  1  0  0  0
  2 21  1  0  0  0
  2  3  2  0  0  0
  3  4  1  0  0  0
  3 22  1  0  0  0
  4 15  1  0  0  0
  4  5  2  0  0  0
  5  6  1  0  0  0
  5 19  1  0  0  0
  6  7  1  0  0  0
  6 23  1  0  0  0
  7  8  1  0  0  0
  7 14  1  0  0  0
  7 24  1  0  0  0
  8 13  1  0  0  0
  8  9  2  0  0  0
  9 10  1  0  0  0
  9 25  1  0  0  0
 10 11  2  0  0  0
 10 26  1  0  0  0
 11 12  1  0  0  0
 11 27  1  0  0  0
 12 13  2  0  0  0
 13 28  1  0  0  0
 14 18  1  0  0  0
 14 15  1  0  0  0
 14 29  1  0  0  0
 15 16  1  0  0  0
 15 30  1  0  0  0
 16 17  2  0  0  0
 16 31  1  0  0  0
 17 18  1  0  0  0
 17 32  1  0  0  0
 18 33  1  0  0  0
 18 34  1  0  0  0
 19 20  1  0  0  0
 19 21  2  0  0  0
 21 35  1  0  0  0
M  END
> <r_pdb_PDB_EXPDTA_TEMPERATURE>
100

> <r_pdb_PDB_RESOLUTION>
2.3

> <s_pdb_PDB_EXPDTA>
X-RAY DIFFRACTION

> <s_pdb_PDB_ID>
7RAD

> <s_pdb_PDB_TITLE>
CRYSTAL STRUCTURE ANALYSIS OF ALDH1B1

> <s_pdb_PDB_format_version>
3.0

$$$$
