7RAD
                    3D
 Schrodinger Suite 2023-4.
 35 38  0  0  1  0            999 V2000
   42.3070   -1.3260    8.0410 F   0  0  0  0  0  0
   42.5060   -0.0390    8.4070 C   0  0  0  0  0  0
   43.6920    0.3250    9.0730 C   0  0  0  0  0  0
   43.9010    1.6640    9.4630 C   0  0  0  0  0  0
   42.9200    2.6390    9.1720 C   0  0  0  0  0  0
   43.1270    3.9750    9.5220 N   0  0  0  0  0  0
   44.5030    4.4240    9.4170 C   0  0  1  0  0  0
   44.6520    5.9380    9.5490 C   0  0  0  0  0  0
   45.4470    6.6520    8.6280 C   0  0  0  0  0  0
   45.5310    8.0530    8.7300 C   0  0  0  0  0  0
   44.8170    8.6920    9.7600 C   0  0  0  0  0  0
   44.0530    8.0270   10.6520 N   0  0  0  0  0  0
   43.9740    6.6840   10.5400 C   0  0  0  0  0  0
   45.4200    3.5810   10.3410 C   0  0  2  0  0  0
   45.1480    2.0430   10.2500 C   0  0  1  0  0  0
   45.0260    1.6150   11.6880 C   0  0  0  0  0  0
   45.1490    2.6240   12.5410 C   0  0  0  0  0  0
   45.3580    3.9390   11.8500 C   0  0  0  0  0  0
   41.7310    2.2710    8.5130 C   0  0  0  0  0  0
   40.7900    3.2070    8.2380 F   0  0  0  0  0  0
   41.5240    0.9330    8.1320 C   0  0  0  0  0  0
   44.4330   -0.4280    9.2950 H   0  0  0  0  0  0
   42.4000    4.6390    9.2800 H   0  0  0  0  0  0
   44.7980    4.1930    8.3950 H   0  0  0  0  0  0
   45.9770    6.1410    7.8420 H   0  0  0  0  0  0
   46.1280    8.6230    8.0350 H   0  0  0  0  0  0
   44.8560    9.7650    9.8710 H   0  0  0  0  0  0
   43.3230    6.2020   11.2540 H   0  0  0  0  0  0
   46.4500    3.7490   10.0240 H   0  0  0  0  0  0
   46.0070    1.5370    9.8050 H   0  0  0  0  0  0
   44.8220    0.5970   11.9780 H   0  0  0  0  0  0
   45.0590    2.5390   13.6130 H   0  0  0  0  0  0
   44.5190    4.5790   12.1080 H   0  0  0  0  0  0
   46.2770    4.4160   12.1880 H   0  0  0  0  0  0
   40.6130    0.6530    7.6260 H   0  0  0  0  0  0
  1  2  1  0  0  0
  2 21  1  0  0  0
  2  3  2  0  0  0
  3  4  1  0  0  0
  3 22  1  0  0  0
  4 15  1  0  0  0
  4  5  2  0  0  0
  5  6  1  0  0  0
  5 19  1  0  0  0
  6  7  1  0  0  0
  6 23  1  0  0  0
  7  8  1  0  0  0
  7 14  1  0  0  0
  7 24  1  0  0  0
  8 13  1  0  0  0
  8  9  2  0  0  0
  9 10  1  0  0  0
  9 25  1  0  0  0
 10 11  2  0  0  0
 10 26  1  0  0  0
 11 12  1  0  0  0
 11 27  1  0  0  0
 12 13  2  0  0  0
 13 28  1  0  0  0
 14 18  1  0  0  0
 14 15  1  0  0  0
 14 29  1  0  0  0
 15 16  1  0  0  0
 15 30  1  0  0  0
 16 17  2  0  0  0
 16 31  1  0  0  0
 17 18  1  0  0  0
 17 32  1  0  0  0
 18 33  1  0  0  0
 18 34  1  0  0  0
 19 20  1  0  0  0
 19 21  2  0  0  0
 21 35  1  0  0  0
M  END
> <r_pdb_PDB_EXPDTA_TEMPERATURE>
100

> <r_pdb_PDB_RESOLUTION>
2.3

> <s_pdb_PDB_EXPDTA>
X-RAY DIFFRACTION

> <s_pdb_PDB_ID>
7RAD

> <s_pdb_PDB_TITLE>
CRYSTAL STRUCTURE ANALYSIS OF ALDH1B1

> <s_pdb_PDB_format_version>
3.0

$$$$
