7RAD
                    3D
 Schrodinger Suite 2023-4.
 35 38  0  0  1  0            999 V2000
   42.3190   -1.3460    8.0560 F   0  0  0  0  0  0
   42.5160   -0.0560    8.4160 C   0  0  0  0  0  0
   43.6930    0.3110    9.0930 C   0  0  0  0  0  0
   43.9010    1.6520    9.4760 C   0  0  0  0  0  0
   42.9240    2.6270    9.1640 C   0  0  0  0  0  0
   43.1280    3.9650    9.5010 N   0  0  0  0  0  0
   44.5050    4.4120    9.4200 C   0  0  1  0  0  0
   44.6530    5.9270    9.5450 C   0  0  0  0  0  0
   45.4530    6.6380    8.6260 C   0  0  0  0  0  0
   45.5420    8.0370    8.7270 C   0  0  0  0  0  0
   44.8290    8.6810    9.7560 C   0  0  0  0  0  0
   44.0600    8.0190   10.6450 N   0  0  0  0  0  0
   43.9740    6.6780   10.5330 C   0  0  0  0  0  0
   45.3980    3.5760   10.3700 C   0  0  2  0  0  0
   45.1410    2.0370   10.2720 C   0  0  1  0  0  0
   45.0190    1.6040   11.7090 C   0  0  0  0  0  0
   45.1120    2.6140   12.5640 C   0  0  0  0  0  0
   45.2850    3.9360   11.8760 C   0  0  0  0  0  0
   41.7410    2.2540    8.4960 C   0  0  0  0  0  0
   40.8050    3.1890    8.2040 F   0  0  0  0  0  0
   41.5380    0.9130    8.1230 C   0  0  0  0  0  0
   44.4320   -0.4420    9.3290 H   0  0  0  0  0  0
   42.4030    4.6280    9.2480 H   0  0  0  0  0  0
   44.8220    4.1730    8.4060 H   0  0  0  0  0  0
   45.9840    6.1240    7.8420 H   0  0  0  0  0  0
   46.1440    8.6050    8.0330 H   0  0  0  0  0  0
   44.8730    9.7540    9.8670 H   0  0  0  0  0  0
   43.3170    6.1990   11.2440 H   0  0  0  0  0  0
   46.4380    3.7500   10.0870 H   0  0  0  0  0  0
   46.0050    1.5410    9.8270 H   0  0  0  0  0  0
   44.8380    0.5810   11.9970 H   0  0  0  0  0  0
   45.0150    2.5260   13.6350 H   0  0  0  0  0  0
   44.4080    4.5330   12.1100 H   0  0  0  0  0  0
   46.1710    4.4590   12.2320 H   0  0  0  0  0  0
   40.6320    0.6310    7.6100 H   0  0  0  0  0  0
  1  2  1  0  0  0
  2 21  1  0  0  0
  2  3  2  0  0  0
  3  4  1  0  0  0
  3 22  1  0  0  0
  4 15  1  0  0  0
  4  5  2  0  0  0
  5  6  1  0  0  0
  5 19  1  0  0  0
  6  7  1  0  0  0
  6 23  1  0  0  0
  7  8  1  0  0  0
  7 14  1  0  0  0
  7 24  1  0  0  0
  8 13  1  0  0  0
  8  9  2  0  0  0
  9 10  1  0  0  0
  9 25  1  0  0  0
 10 11  2  0  0  0
 10 26  1  0  0  0
 11 12  1  0  0  0
 11 27  1  0  0  0
 12 13  2  0  0  0
 13 28  1  0  0  0
 14 18  1  0  0  0
 14 15  1  0  0  0
 14 29  1  0  0  0
 15 16  1  0  0  0
 15 30  1  0  0  0
 16 17  2  0  0  0
 16 31  1  0  0  0
 17 18  1  0  0  0
 17 32  1  0  0  0
 18 33  1  0  0  0
 18 34  1  0  0  0
 19 20  1  0  0  0
 19 21  2  0  0  0
 21 35  1  0  0  0
M  END
> <r_pdb_PDB_EXPDTA_TEMPERATURE>
100

> <r_pdb_PDB_RESOLUTION>
2.3

> <s_pdb_PDB_EXPDTA>
X-RAY DIFFRACTION

> <s_pdb_PDB_ID>
7RAD

> <s_pdb_PDB_TITLE>
CRYSTAL STRUCTURE ANALYSIS OF ALDH1B1

> <s_pdb_PDB_format_version>
3.0

$$$$
