7RAD
                    3D
 Schrodinger Suite 2023-4.
 35 38  0  0  1  0            999 V2000
   42.3240   -1.3480    8.0450 F   0  0  0  0  0  0
   42.5150   -0.0590    8.4110 C   0  0  0  0  0  0
   43.6950    0.3120    9.0810 C   0  0  0  0  0  0
   43.8960    1.6520    9.4700 C   0  0  0  0  0  0
   42.9110    2.6230    9.1720 C   0  0  0  0  0  0
   43.1100    3.9600    9.5150 N   0  0  0  0  0  0
   44.4850    4.4140    9.4190 C   0  0  1  0  0  0
   44.6290    5.9280    9.5500 C   0  0  0  0  0  0
   45.4340    6.6430    8.6380 C   0  0  0  0  0  0
   45.5210    8.0420    8.7440 C   0  0  0  0  0  0
   44.7990    8.6810    9.7700 C   0  0  0  0  0  0
   44.0250    8.0160   10.6520 N   0  0  0  0  0  0
   43.9420    6.6750   10.5350 C   0  0  0  0  0  0
   45.3950    3.5790   10.3560 C   0  0  2  0  0  0
   45.1390    2.0400   10.2600 C   0  0  1  0  0  0
   45.0220    1.6080   11.6980 C   0  0  0  0  0  0
   45.1260    2.6180   12.5520 C   0  0  0  0  0  0
   45.3050    3.9380   11.8630 C   0  0  0  0  0  0
   41.7260    2.2460    8.5110 C   0  0  0  0  0  0
   40.7810    3.1770    8.2320 F   0  0  0  0  0  0
   41.5280    0.9060    8.1310 C   0  0  0  0  0  0
   44.4400   -0.4370    9.3060 H   0  0  0  0  0  0
   42.3800    4.6200    9.2670 H   0  0  0  0  0  0
   44.7900    4.1820    8.4000 H   0  0  0  0  0  0
   45.9720    6.1320    7.8570 H   0  0  0  0  0  0
   46.1270    8.6130    8.0560 H   0  0  0  0  0  0
   44.8410    9.7540    9.8840 H   0  0  0  0  0  0
   43.2830    6.1910   11.2420 H   0  0  0  0  0  0
   46.4290    3.7560   10.0550 H   0  0  0  0  0  0
   46.0030    1.5440    9.8140 H   0  0  0  0  0  0
   44.8360    0.5870   11.9870 H   0  0  0  0  0  0
   45.0340    2.5300   13.6240 H   0  0  0  0  0  0
   44.4410    4.5490   12.1090 H   0  0  0  0  0  0
   46.2040    4.4460   12.2100 H   0  0  0  0  0  0
   40.6200    0.6200    7.6230 H   0  0  0  0  0  0
  1  2  1  0  0  0
  2 21  1  0  0  0
  2  3  2  0  0  0
  3  4  1  0  0  0
  3 22  1  0  0  0
  4 15  1  0  0  0
  4  5  2  0  0  0
  5  6  1  0  0  0
  5 19  1  0  0  0
  6  7  1  0  0  0
  6 23  1  0  0  0
  7  8  1  0  0  0
  7 14  1  0  0  0
  7 24  1  0  0  0
  8 13  1  0  0  0
  8  9  2  0  0  0
  9 10  1  0  0  0
  9 25  1  0  0  0
 10 11  2  0  0  0
 10 26  1  0  0  0
 11 12  1  0  0  0
 11 27  1  0  0  0
 12 13  2  0  0  0
 13 28  1  0  0  0
 14 18  1  0  0  0
 14 15  1  0  0  0
 14 29  1  0  0  0
 15 16  1  0  0  0
 15 30  1  0  0  0
 16 17  2  0  0  0
 16 31  1  0  0  0
 17 18  1  0  0  0
 17 32  1  0  0  0
 18 33  1  0  0  0
 18 34  1  0  0  0
 19 20  1  0  0  0
 19 21  2  0  0  0
 21 35  1  0  0  0
M  END
> <r_pdb_PDB_EXPDTA_TEMPERATURE>
100

> <r_pdb_PDB_RESOLUTION>
2.3

> <s_pdb_PDB_EXPDTA>
X-RAY DIFFRACTION

> <s_pdb_PDB_ID>
7RAD

> <s_pdb_PDB_TITLE>
CRYSTAL STRUCTURE ANALYSIS OF ALDH1B1

> <s_pdb_PDB_format_version>
3.0

$$$$
