7RAD
                    3D
 Schrodinger Suite 2023-4.
 35 38  0  0  1  0            999 V2000
   42.2960   -1.3470    8.0970 F   0  0  0  0  0  0
   42.4980   -0.0570    8.4510 C   0  0  0  0  0  0
   43.6820    0.3100    9.1180 C   0  0  0  0  0  0
   43.8940    1.6530    9.4950 C   0  0  0  0  0  0
   42.9170    2.6280    9.1870 C   0  0  0  0  0  0
   43.1260    3.9680    9.5180 N   0  0  0  0  0  0
   44.5040    4.4120    9.4270 C   0  0  1  0  0  0
   44.6560    5.9260    9.5510 C   0  0  0  0  0  0
   45.4550    6.6340    8.6290 C   0  0  0  0  0  0
   45.5480    8.0340    8.7280 C   0  0  0  0  0  0
   44.8390    8.6800    9.7580 C   0  0  0  0  0  0
   44.0710    8.0210   10.6510 N   0  0  0  0  0  0
   43.9820    6.6790   10.5400 C   0  0  0  0  0  0
   45.4020    3.5760   10.3730 C   0  0  2  0  0  0
   45.1400    2.0370   10.2810 C   0  0  1  0  0  0
   45.0270    1.6080   11.7200 C   0  0  0  0  0  0
   45.1280    2.6200   12.5710 C   0  0  0  0  0  0
   45.3020    3.9390   11.8790 C   0  0  0  0  0  0
   41.7290    2.2550    8.5300 C   0  0  0  0  0  0
   40.7920    3.1900    8.2410 F   0  0  0  0  0  0
   41.5190    0.9130    8.1630 C   0  0  0  0  0  0
   44.4210   -0.4430    9.3510 H   0  0  0  0  0  0
   42.4020    4.6320    9.2660 H   0  0  0  0  0  0
   44.8140    4.1710    8.4120 H   0  0  0  0  0  0
   45.9830    6.1190    7.8440 H   0  0  0  0  0  0
   46.1480    8.6000    8.0310 H   0  0  0  0  0  0
   44.8860    9.7530    9.8670 H   0  0  0  0  0  0
   43.3260    6.2030   11.2540 H   0  0  0  0  0  0
   46.4400    3.7470   10.0820 H   0  0  0  0  0  0
   46.0010    1.5380    9.8320 H   0  0  0  0  0  0
   44.8440    0.5860   12.0110 H   0  0  0  0  0  0
   45.0370    2.5340   13.6440 H   0  0  0  0  0  0
   44.4300    4.5410   12.1190 H   0  0  0  0  0  0
   46.1930    4.4580   12.2280 H   0  0  0  0  0  0
   40.6080    0.6290    7.6600 H   0  0  0  0  0  0
  1  2  1  0  0  0
  2 21  1  0  0  0
  2  3  2  0  0  0
  3  4  1  0  0  0
  3 22  1  0  0  0
  4 15  1  0  0  0
  4  5  2  0  0  0
  5  6  1  0  0  0
  5 19  1  0  0  0
  6  7  1  0  0  0
  6 23  1  0  0  0
  7  8  1  0  0  0
  7 14  1  0  0  0
  7 24  1  0  0  0
  8 13  1  0  0  0
  8  9  2  0  0  0
  9 10  1  0  0  0
  9 25  1  0  0  0
 10 11  2  0  0  0
 10 26  1  0  0  0
 11 12  1  0  0  0
 11 27  1  0  0  0
 12 13  2  0  0  0
 13 28  1  0  0  0
 14 18  1  0  0  0
 14 15  1  0  0  0
 14 29  1  0  0  0
 15 16  1  0  0  0
 15 30  1  0  0  0
 16 17  2  0  0  0
 16 31  1  0  0  0
 17 18  1  0  0  0
 17 32  1  0  0  0
 18 33  1  0  0  0
 18 34  1  0  0  0
 19 20  1  0  0  0
 19 21  2  0  0  0
 21 35  1  0  0  0
M  END
> <r_pdb_PDB_EXPDTA_TEMPERATURE>
100

> <r_pdb_PDB_RESOLUTION>
2.3

> <s_pdb_PDB_EXPDTA>
X-RAY DIFFRACTION

> <s_pdb_PDB_ID>
7RAD

> <s_pdb_PDB_TITLE>
CRYSTAL STRUCTURE ANALYSIS OF ALDH1B1

> <s_pdb_PDB_format_version>
3.0

$$$$
