7RAD
                    3D
 Schrodinger Suite 2023-4.
 35 38  0  0  1  0            999 V2000
   42.1120   -1.4240    7.9540 F   0  0  0  0  0  0
   42.3210   -0.1340    8.3070 C   0  0  0  0  0  0
   43.5000    0.2220    8.9870 C   0  0  0  0  0  0
   43.7250    1.5630    9.3600 C   0  0  0  0  0  0
   42.7620    2.5490    9.0440 C   0  0  0  0  0  0
   42.9850    3.8850    9.3840 N   0  0  0  0  0  0
   44.3700    4.3190    9.3120 C   0  0  1  0  0  0
   44.5380    5.8300    9.4600 C   0  0  0  0  0  0
   45.3400    6.5450    8.5460 C   0  0  0  0  0  0
   45.4520    7.9410    8.6700 C   0  0  0  0  0  0
   44.7590    8.5770    9.7170 C   0  0  0  0  0  0
   43.9890    7.9110   10.6020 N   0  0  0  0  0  0
   43.8810    6.5730   10.4680 C   0  0  0  0  0  0
   45.2600    3.4630   10.2470 C   0  0  2  0  0  0
   44.9760    1.9300   10.1470 C   0  0  1  0  0  0
   44.8710    1.4920   11.5850 C   0  0  0  0  0  0
   45.0050    2.4940   12.4430 C   0  0  0  0  0  0
   45.1910    3.8160   11.7570 C   0  0  0  0  0  0
   41.5750    2.1870    8.3720 C   0  0  0  0  0  0
   40.6460    3.1260    8.0670 F   0  0  0  0  0  0
   41.3560    0.8450    8.0030 C   0  0  0  0  0  0
   44.2290   -0.5380    9.2290 H   0  0  0  0  0  0
   42.2690    4.5600    9.1410 H   0  0  0  0  0  0
   44.6820    4.0920    8.2940 H   0  0  0  0  0  0
   45.8560    6.0370    7.7480 H   0  0  0  0  0  0
   46.0550    8.5110    7.9800 H   0  0  0  0  0  0
   44.8210    9.6470    9.8460 H   0  0  0  0  0  0
   43.2240    6.0920   11.1770 H   0  0  0  0  0  0
   46.2970    3.6190    9.9430 H   0  0  0  0  0  0
   45.8300    1.4240    9.6910 H   0  0  0  0  0  0
   44.6750    0.4700   11.8670 H   0  0  0  0  0  0
   44.9340    2.4030   13.5160 H   0  0  0  0  0  0
   44.3350    4.4320   12.0160 H   0  0  0  0  0  0
   46.0980    4.3130   12.0980 H   0  0  0  0  0  0
   40.4500    0.5690    7.4850 H   0  0  0  0  0  0
  1  2  1  0  0  0
  2 21  1  0  0  0
  2  3  2  0  0  0
  3  4  1  0  0  0
  3 22  1  0  0  0
  4 15  1  0  0  0
  4  5  2  0  0  0
  5  6  1  0  0  0
  5 19  1  0  0  0
  6  7  1  0  0  0
  6 23  1  0  0  0
  7  8  1  0  0  0
  7 14  1  0  0  0
  7 24  1  0  0  0
  8 13  1  0  0  0
  8  9  2  0  0  0
  9 10  1  0  0  0
  9 25  1  0  0  0
 10 11  2  0  0  0
 10 26  1  0  0  0
 11 12  1  0  0  0
 11 27  1  0  0  0
 12 13  2  0  0  0
 13 28  1  0  0  0
 14 18  1  0  0  0
 14 15  1  0  0  0
 14 29  1  0  0  0
 15 16  1  0  0  0
 15 30  1  0  0  0
 16 17  2  0  0  0
 16 31  1  0  0  0
 17 18  1  0  0  0
 17 32  1  0  0  0
 18 33  1  0  0  0
 18 34  1  0  0  0
 19 20  1  0  0  0
 19 21  2  0  0  0
 21 35  1  0  0  0
M  END
> <r_pdb_PDB_EXPDTA_TEMPERATURE>
100

> <r_pdb_PDB_RESOLUTION>
2.3

> <s_pdb_PDB_EXPDTA>
X-RAY DIFFRACTION

> <s_pdb_PDB_ID>
7RAD

> <s_pdb_PDB_TITLE>
CRYSTAL STRUCTURE ANALYSIS OF ALDH1B1

> <s_pdb_PDB_format_version>
3.0

$$$$
