7RAD
                    3D
 Schrodinger Suite 2023-4.
 35 38  0  0  1  0            999 V2000
   42.3190   -1.3470    8.0330 F   0  0  0  0  0  0
   42.5150   -0.0580    8.3990 C   0  0  0  0  0  0
   43.6940    0.3070    9.0730 C   0  0  0  0  0  0
   43.9000    1.6460    9.4640 C   0  0  0  0  0  0
   42.9200    2.6210    9.1620 C   0  0  0  0  0  0
   43.1230    3.9570    9.5090 N   0  0  0  0  0  0
   44.5000    4.4070    9.4170 C   0  0  1  0  0  0
   44.6490    5.9200    9.5460 C   0  0  0  0  0  0
   45.4450    6.6330    8.6240 C   0  0  0  0  0  0
   45.5350    8.0330    8.7280 C   0  0  0  0  0  0
   44.8270    8.6730    9.7620 C   0  0  0  0  0  0
   44.0620    8.0100   10.6540 N   0  0  0  0  0  0
   43.9750    6.6690   10.5390 C   0  0  0  0  0  0
   45.4040    3.5670   10.3550 C   0  0  2  0  0  0
   45.1410    2.0280   10.2570 C   0  0  1  0  0  0
   45.0190    1.5960   11.6950 C   0  0  0  0  0  0
   45.1260    2.6030   12.5500 C   0  0  0  0  0  0
   45.3130    3.9240   11.8630 C   0  0  0  0  0  0
   41.7360    2.2500    8.4960 C   0  0  0  0  0  0
   40.7970    3.1850    8.2130 F   0  0  0  0  0  0
   41.5340    0.9110    8.1150 C   0  0  0  0  0  0
   44.4350   -0.4450    9.3020 H   0  0  0  0  0  0
   42.3970    4.6210    9.2600 H   0  0  0  0  0  0
   44.8070    4.1720    8.4000 H   0  0  0  0  0  0
   45.9720    6.1210    7.8370 H   0  0  0  0  0  0
   46.1320    8.6020    8.0320 H   0  0  0  0  0  0
   44.8710    9.7460    9.8750 H   0  0  0  0  0  0
   43.3220    6.1880   11.2520 H   0  0  0  0  0  0
   46.4390    3.7400   10.0580 H   0  0  0  0  0  0
   46.0050    1.5290    9.8140 H   0  0  0  0  0  0
   44.8270    0.5740   11.9820 H   0  0  0  0  0  0
   45.0320    2.5150   13.6220 H   0  0  0  0  0  0
   44.4500    4.5370   12.1090 H   0  0  0  0  0  0
   46.2120    4.4290   12.2120 H   0  0  0  0  0  0
   40.6270    0.6300    7.6030 H   0  0  0  0  0  0
  1  2  1  0  0  0
  2 21  1  0  0  0
  2  3  2  0  0  0
  3  4  1  0  0  0
  3 22  1  0  0  0
  4 15  1  0  0  0
  4  5  2  0  0  0
  5  6  1  0  0  0
  5 19  1  0  0  0
  6  7  1  0  0  0
  6 23  1  0  0  0
  7  8  1  0  0  0
  7 14  1  0  0  0
  7 24  1  0  0  0
  8 13  1  0  0  0
  8  9  2  0  0  0
  9 10  1  0  0  0
  9 25  1  0  0  0
 10 11  2  0  0  0
 10 26  1  0  0  0
 11 12  1  0  0  0
 11 27  1  0  0  0
 12 13  2  0  0  0
 13 28  1  0  0  0
 14 18  1  0  0  0
 14 15  1  0  0  0
 14 29  1  0  0  0
 15 16  1  0  0  0
 15 30  1  0  0  0
 16 17  2  0  0  0
 16 31  1  0  0  0
 17 18  1  0  0  0
 17 32  1  0  0  0
 18 33  1  0  0  0
 18 34  1  0  0  0
 19 20  1  0  0  0
 19 21  2  0  0  0
 21 35  1  0  0  0
M  END
> <r_pdb_PDB_EXPDTA_TEMPERATURE>
100

> <r_pdb_PDB_RESOLUTION>
2.3

> <s_pdb_PDB_EXPDTA>
X-RAY DIFFRACTION

> <s_pdb_PDB_ID>
7RAD

> <s_pdb_PDB_TITLE>
CRYSTAL STRUCTURE ANALYSIS OF ALDH1B1

> <s_pdb_PDB_format_version>
3.0

$$$$
