lig30
                    3D
 Schrodinger Suite 2024-1.
 30 32  0  0  1  0            999 V2000
   19.1698   56.8435   20.1690 N   0  0  0  0  0  0
   19.5025   57.7935   19.2530 C   0  0  0  0  0  0
   18.6494   58.5737   18.6524 N   0  0  0  0  0  0
   19.2094   59.3878   17.7690 C   0  0  0  0  0  0
   18.3126   60.2271   16.9449 C   0  0  0  0  0  0
   18.3887   61.4235   16.2345 C   0  0  0  0  0  0
   17.1302   61.6577   15.6587 C   0  0  0  0  0  0
   16.3261   60.5879   16.0258 C   0  0  0  0  0  0
   14.5828   60.1379   15.7703 P   0  0  0  0  0  0
   13.7268   61.3505   16.1690 O   0  0  0  0  0  0
   14.3700   59.7495   14.2870 O   0  5  0  0  0  0
   14.3687   58.9495   16.7202 O   0  5  0  0  0  0
   17.0501   59.7472   16.8020 O   0  0  0  0  0  0
   20.6047   59.2183   17.6390 C   0  0  0  0  0  0
   21.6026   59.7633   16.6801 C   0  0  0  0  0  0
   21.8074   61.1364   16.5694 C   0  0  0  0  0  0
   22.7371   61.6352   15.6601 C   0  0  0  0  0  0
   23.4634   60.7521   14.8628 C   0  0  0  0  0  0
   23.2687   59.3763   14.9691 C   0  0  0  0  0  0
   22.3367   58.8827   15.8781 C   0  0  0  0  0  0
   21.1461   58.0364   18.8066 S   0  0  0  0  0  0
   18.1997   56.7003   20.4311 H   0  0  0  0  0  0
   19.8364   56.5494   20.8703 H   0  0  0  0  0  0
   19.2484   62.0692   16.1500 H   0  0  0  0  0  0
   16.8375   62.5093   15.0614 H   0  0  0  0  0  0
   21.2509   61.8055   17.2030 H   0  0  0  0  0  0
   22.8995   62.7001   15.5797 H   0  0  0  0  0  0
   24.1887   61.1374   14.1609 H   0  0  0  0  0  0
   23.8354   58.6948   14.3510 H   0  0  0  0  0  0
   22.1863   57.8153   15.9592 H   0  0  0  0  0  0
  1  2  1  0  0  0
  1 22  1  0  0  0
  1 23  1  0  0  0
  2 21  1  0  0  0
  2  3  2  0  0  0
  3  4  1  0  0  0
  4  5  1  0  0  0
  4 14  2  0  0  0
  5 13  1  0  0  0
  5  6  2  0  0  0
  6  7  1  0  0  0
  6 24  1  0  0  0
  7  8  2  0  0  0
  7 25  1  0  0  0
  8  9  1  0  0  0
  8 13  1  0  0  0
  9 10  2  0  0  0
  9 11  1  0  0  0
  9 12  1  0  0  0
 14 15  1  0  0  0
 14 21  1  0  0  0
 15 20  1  0  0  0
 15 16  2  0  0  0
 16 17  1  0  0  0
 16 26  1  0  0  0
 17 18  2  0  0  0
 17 27  1  0  0  0
 18 19  1  0  0  0
 18 28  1  0  0  0
 19 20  2  0  0  0
 19 29  1  0  0  0
 20 30  1  0  0  0
M  CHG  2  11  -1  12  -1
M  END
> <Tot Q>
-2

> <Source File Index>
72

> <i_f3d_flags>
0

> <subgroup collapsed>
0

> <Ionization Penalty>
0.4779

> <State Penalty>
0.4818

> <docking score>
-8.39536

> <glide emodel>
-122.516

> <glide gscore>
-8.87718

> <Source File>
Sries24383_dock_SP_confgen_100_lib.maegz

> <Source Path>
C:\Users\yujie\Desktop\two_s\data

> <entry id>
81

> <subgroup title>
a

> <subgroupid>
Sries24383_dock_SP_confgen_100_lib

$$$$
