lig53
                    3D
 Schrodinger Suite 2023-4.
 41 44  0  0  1  0            999 V2000
   -9.8282   45.4166    2.3362 N   0  0  0  0  0  0
  -10.8760   46.1508    2.7147 C   0  0  0  0  0  0
  -11.8790   46.2165    2.0036 O   0  0  0  0  0  0
  -10.7935   46.8632    4.0503 C   0  0  0  0  0  0
  -11.9488   47.4769    4.5653 C   0  0  0  0  0  0
  -11.9546   48.1499    5.7880 C   0  0  0  0  0  0
  -10.7582   48.2063    6.5117 C   0  0  0  0  0  0
  -10.5076   48.7889    7.7231 N   0  0  0  0  0  0
   -9.2267   48.5886    7.9464 C   0  0  0  0  0  0
   -8.5115   49.0833    9.1670 C   0  0  0  0  0  0
   -7.1154   49.0557    9.2533 C   0  0  0  0  0  0
   -6.4723   49.5135   10.4015 C   0  0  0  0  0  0
   -7.2128   50.0217   11.4787 C   0  0  0  0  0  0
   -6.5189   50.4231   12.7496 C   0  0  0  0  0  0
   -5.4038   49.9698   13.0177 O   0  0  0  0  0  0
   -7.2130   51.3134   13.7319 C   0  0  0  0  0  0
   -7.8675   52.4760   13.3040 C   0  0  0  0  0  0
   -8.5200   53.2904   14.2254 C   0  0  0  0  0  0
   -8.5148   52.9486   15.5753 C   0  0  0  0  0  0
   -7.8323   51.8183   16.0157 C   0  0  0  0  0  0
   -7.1683   51.0102   15.0977 C   0  0  0  0  0  0
   -8.6117   50.0392   11.3909 C   0  0  0  0  0  0
   -9.2508   49.5805   10.2457 C   0  0  0  0  0  0
   -8.6307   47.8616    6.9347 N   0  0  0  0  0  0
   -9.5943   47.5966    5.9915 C   0  0  0  0  0  0
   -9.5824   46.9179    4.7719 C   0  0  0  0  0  0
   -9.8741   44.8938    1.4724 H   0  0  0  0  0  0
   -9.0680   45.2337    2.9723 H   0  0  0  0  0  0
  -12.8730   47.4378    4.0041 H   0  0  0  0  0  0
  -12.8534   48.6144    6.1656 H   0  0  0  0  0  0
   -6.5177   48.6751    8.4366 H   0  0  0  0  0  0
   -5.3925   49.4624   10.4462 H   0  0  0  0  0  0
   -7.8759   52.7553   12.2608 H   0  0  0  0  0  0
   -9.0320   54.1806   13.8916 H   0  0  0  0  0  0
   -9.0424   53.5623   16.2909 H   0  0  0  0  0  0
   -7.8312   51.5592   17.0650 H   0  0  0  0  0  0
   -6.6544   50.1273   15.4548 H   0  0  0  0  0  0
   -9.2254   50.3746   12.2160 H   0  0  0  0  0  0
  -10.3299   49.5990   10.2089 H   0  0  0  0  0  0
   -8.6662   46.4688    4.4152 H   0  0  0  0  0  0
   -7.6518   47.5908    6.9165 H   0  0  0  0  0  0
  1  2  1  0  0  0
  1 27  1  0  0  0
  1 28  1  0  0  0
  2  3  2  0  0  0
  2  4  1  0  0  0
  4 26  1  0  0  0
  4  5  2  0  0  0
  5  6  1  0  0  0
  5 29  1  0  0  0
  6  7  2  0  0  0
  6 30  1  0  0  0
  7 25  1  0  0  0
  7  8  1  0  0  0
  8  9  2  0  0  0
  9 10  1  0  0  0
  9 24  1  0  0  0
 10 23  1  0  0  0
 10 11  2  0  0  0
 11 12  1  0  0  0
 11 31  1  0  0  0
 12 13  2  0  0  0
 12 32  1  0  0  0
 13 14  1  0  0  0
 13 22  1  0  0  0
 14 15  2  0  0  0
 14 16  1  0  0  0
 16 21  1  0  0  0
 16 17  2  0  0  0
 17 18  1  0  0  0
 17 33  1  0  0  0
 18 19  2  0  0  0
 18 34  1  0  0  0
 19 20  1  0  0  0
 19 35  1  0  0  0
 20 21  2  0  0  0
 20 36  1  0  0  0
 21 37  1  0  0  0
 22 23  2  0  0  0
 22 38  1  0  0  0
 23 39  1  0  0  0
 24 25  1  0  0  0
 24 41  1  0  0  0
 25 26  2  0  0  0
 26 40  1  0  0  0
M  END
> <i_epik_Tot_Q>
0

> <i_epik_Tot_abs_Q>
0

> <i_i_glide_confnum>
7

> <i_i_glide_lignum>
161

> <i_i_glide_posenum>
215

> <i_i_glide_rotatable_bonds>
4

> <i_lp_mmshare_version>
51139

> <i_m_source_file_index>
54

> <i_f3d_flags>
0

> <b_lp_Chiralities_Consistent>
1

> <r_epik_Charging_Adjusted_Penalty>
0.484244

> <r_epik_Ionization_Penalty>
0.0576

> <r_epik_Ionization_Penalty_Charging>
0

> <r_epik_Ionization_Penalty_Neutral>
0.0576

> <r_epik_State_Penalty>
0.4842

> <r_i_docking_score>
-5.84706

> <r_i_glide_ecoul>
-8.93042

> <r_i_glide_eff_state_penalty>
0.484244

> <r_i_glide_einternal>
4.81687

> <r_i_glide_emodel>
-67.646

> <r_i_glide_energy>
-49.3328

> <r_i_glide_erotb>
0.487838

> <r_i_glide_esite>
-0.176651

> <r_i_glide_evdw>
-40.4024

> <r_i_glide_gscore>
-6.3313

> <r_i_glide_hbond>
-0.198767

> <r_i_glide_ligand_efficiency>
-0.224887

> <r_i_glide_ligand_efficiency_ln>
-1.37316

> <r_i_glide_ligand_efficiency_sa>
-0.666227

> <r_i_glide_lipo>
-1.71336

> <r_i_glide_metal>
-0

> <r_i_glide_rewards>
-1.37069

> <r_lp_Energy>
37.1374

> <s_epik_cmdline>
J2VwaWtfcHl0aG9uJywgJy1waHQnLCAnMi4wJywgJy1waCcsICc3LjQnLCAnLXRuJywgJzgnLCAnLW1hJywgJzIwMCcsICctaW1hZScsICc8aW5maWxlLm1hZT4nLCAnLW9tYWUnLCAnPG91dGZpbGUubWFlPic=

> <s_epik_input>
W05IMl1DKD1PKWMoW2NIXVtjSF0xKVtjSF1jKGMxMiluYyhbbkhdMiktYzNbY0hdW2NIXWMoW2NIXVtjSF0zKUMoPU8pYzRbY0hdW2NIXVtjSF1bY0hdW2NIXTQ=

> <s_i_glide_gridfile>
Sries43521-001-gridgen

> <s_lp_Force_Field>
OPLS3e

> <s_lp_Variant>
lig53-2

> <s_m_source_file>
/home/user-home/yujie/0_PBCNetv2/data/0_0_high_sim/0_noncov/Sries43521/ligprep_input.csv

$$$$
