lig77
                    3D
 Schrodinger Suite 2023-4.
 47 50  0  0  1  0            999 V2000
   -9.8487   45.4163    2.3446 N   0  0  0  0  0  0
  -10.8946   46.1515    2.7269 C   0  0  0  0  0  0
  -11.9015   46.2163    2.0215 O   0  0  0  0  0  0
  -10.8054   46.8682    4.0595 C   0  0  0  0  0  0
  -11.9533   47.4983    4.5727 C   0  0  0  0  0  0
  -11.9517   48.1711    5.7956 C   0  0  0  0  0  0
  -10.7549   48.2127    6.5198 C   0  0  0  0  0  0
  -10.4979   48.7897    7.7314 N   0  0  0  0  0  0
   -9.2199   48.5713    7.9526 C   0  0  0  0  0  0
   -8.4970   49.0625    9.1668 C   0  0  0  0  0  0
   -7.0991   49.1314    9.1967 C   0  0  0  0  0  0
   -6.4458   49.6111   10.3297 C   0  0  0  0  0  0
   -7.1785   50.0538   11.4387 C   0  0  0  0  0  0
   -6.4427   50.4808   12.6655 C   0  0  0  0  0  0
   -5.5004   49.8121   13.0943 O   0  0  0  0  0  0
   -6.6193   51.9382   13.1889 C   0  0  0  0  0  0
   -8.0704   52.4586   13.3317 C   0  0  0  0  0  0
   -8.7903   51.8158   14.5408 C   0  0  0  0  0  0
   -8.0036   52.0324   15.8518 C   0  0  0  0  0  0
   -6.5220   51.6064   15.7332 C   0  0  0  0  0  0
   -5.8410   52.2408   14.4983 C   0  0  0  0  0  0
   -8.5744   49.9434   11.4221 C   0  0  0  0  0  0
   -9.2267   49.4659   10.2911 C   0  0  0  0  0  0
   -8.6308   47.8390    6.9417 N   0  0  0  0  0  0
   -9.5983   47.5871    6.0000 C   0  0  0  0  0  0
   -9.5943   46.9082    4.7816 C   0  0  0  0  0  0
   -9.9000   44.8931    1.4815 H   0  0  0  0  0  0
   -9.0837   45.2345    2.9757 H   0  0  0  0  0  0
  -12.8769   47.4726    4.0104 H   0  0  0  0  0  0
  -12.8443   48.6453    6.1735 H   0  0  0  0  0  0
   -6.5104   48.8172    8.3447 H   0  0  0  0  0  0
   -5.3639   49.6437   10.3314 H   0  0  0  0  0  0
   -6.1445   52.5374   12.4107 H   0  0  0  0  0  0
   -8.6285   52.3857   12.4015 H   0  0  0  0  0  0
   -8.0271   53.5346   13.5083 H   0  0  0  0  0  0
   -8.9118   50.7425   14.3853 H   0  0  0  0  0  0
   -9.7993   52.2166   14.6393 H   0  0  0  0  0  0
   -8.4827   51.4902   16.6692 H   0  0  0  0  0  0
   -8.0521   53.0872   16.1275 H   0  0  0  0  0  0
   -6.4638   50.5185   15.6711 H   0  0  0  0  0  0
   -5.9826   51.8836   16.6387 H   0  0  0  0  0  0
   -5.8217   53.3213   14.6441 H   0  0  0  0  0  0
   -4.7877   51.9703   14.4169 H   0  0  0  0  0  0
   -9.1752   50.1976   12.2817 H   0  0  0  0  0  0
  -10.3056   49.3983   10.2989 H   0  0  0  0  0  0
   -8.6829   46.4466    4.4259 H   0  0  0  0  0  0
   -7.6547   47.5595    6.9248 H   0  0  0  0  0  0
  1  2  1  0  0  0
  1 27  1  0  0  0
  1 28  1  0  0  0
  2  3  2  0  0  0
  2  4  1  0  0  0
  4 26  1  0  0  0
  4  5  2  0  0  0
  5  6  1  0  0  0
  5 29  1  0  0  0
  6  7  2  0  0  0
  6 30  1  0  0  0
  7 25  1  0  0  0
  7  8  1  0  0  0
  8  9  2  0  0  0
  9 10  1  0  0  0
  9 24  1  0  0  0
 10 23  1  0  0  0
 10 11  2  0  0  0
 11 12  1  0  0  0
 11 31  1  0  0  0
 12 13  2  0  0  0
 12 32  1  0  0  0
 13 14  1  0  0  0
 13 22  1  0  0  0
 14 15  2  0  0  0
 14 16  1  0  0  0
 16 21  1  0  0  0
 16 17  1  0  0  0
 16 33  1  0  0  0
 17 18  1  0  0  0
 17 34  1  0  0  0
 17 35  1  0  0  0
 18 19  1  0  0  0
 18 36  1  0  0  0
 18 37  1  0  0  0
 19 20  1  0  0  0
 19 38  1  0  0  0
 19 39  1  0  0  0
 20 21  1  0  0  0
 20 40  1  0  0  0
 20 41  1  0  0  0
 21 42  1  0  0  0
 21 43  1  0  0  0
 22 23  2  0  0  0
 22 44  1  0  0  0
 23 45  1  0  0  0
 24 25  1  0  0  0
 24 47  1  0  0  0
 25 26  2  0  0  0
 26 46  1  0  0  0
M  END
> <i_epik_Tot_Q>
0

> <i_epik_Tot_abs_Q>
0

> <i_i_glide_confnum>
13

> <i_i_glide_lignum>
235

> <i_i_glide_posenum>
332

> <i_i_glide_rotatable_bonds>
4

> <i_lp_mmshare_version>
51139

> <i_m_source_file_index>
78

> <i_f3d_flags>
0

> <b_lp_Chiralities_Consistent>
1

> <r_epik_Charging_Adjusted_Penalty>
0.484244

> <r_epik_Ionization_Penalty>
0.0576

> <r_epik_Ionization_Penalty_Charging>
0

> <r_epik_Ionization_Penalty_Neutral>
0.0576

> <r_epik_State_Penalty>
0.4842

> <r_i_docking_score>
-5.81977

> <r_i_glide_ecoul>
-8.82191

> <r_i_glide_eff_state_penalty>
0.484244

> <r_i_glide_einternal>
5.17397

> <r_i_glide_emodel>
-67.2908

> <r_i_glide_energy>
-49.3988

> <r_i_glide_erotb>
0.472867

> <r_i_glide_esite>
-0.175927

> <r_i_glide_evdw>
-40.5769

> <r_i_glide_gscore>
-6.30402

> <r_i_glide_hbond>
-0.206211

> <r_i_glide_ligand_efficiency>
-0.223837

> <r_i_glide_ligand_efficiency_ln>
-1.36675

> <r_i_glide_ligand_efficiency_sa>
-0.663117

> <r_i_glide_lipo>
-1.7226

> <r_i_glide_metal>
-0

> <r_i_glide_rewards>
-1.32002

> <r_lp_Energy>
34.666

> <s_epik_cmdline>
J2VwaWtfcHl0aG9uJywgJy1waHQnLCAnMi4wJywgJy1waCcsICc3LjQnLCAnLXRuJywgJzgnLCAnLW1hJywgJzIwMCcsICctaW1hZScsICc8aW5maWxlLm1hZT4nLCAnLW9tYWUnLCAnPG91dGZpbGUubWFlPic=

> <s_epik_input>
W05IMl1DKD1PKWMoW2NIXVtjSF0xKVtjSF1jKGMxMiluYyhbbkhdMiktYzNbY0hdW2NIXWMoW2NIXVtjSF0zKUMoPU8pW0NIXTRbQ0gyXVtDSDJdW0NIMl1bQ0gyXVtDSDJdNA==

> <s_i_glide_gridfile>
Sries43521-001-gridgen

> <s_lp_Force_Field>
OPLS3e

> <s_lp_Variant>
lig77-2

> <s_m_source_file>
/home/user-home/yujie/0_PBCNetv2/data/0_0_high_sim/0_noncov/Sries43521/ligprep_input.csv

$$$$
