lig65
                    3D
 Schrodinger Suite 2024-1.
 41 44  0  0  1  0            999 V2000
   -9.8772   45.4163    2.5438 N   0  0  0  0  0  0
  -10.9172   46.1673    2.9115 C   0  0  0  0  0  0
  -11.9303   46.2162    2.2131 O   0  0  0  0  0  0
  -10.8164   46.9063    4.2326 C   0  0  0  0  0  0
  -11.9677   47.5182    4.7596 C   0  0  0  0  0  0
  -11.9643   48.1859    5.9857 C   0  0  0  0  0  0
  -10.7642   48.2320    6.7032 C   0  0  0  0  0  0
  -10.5106   48.8018    7.9207 N   0  0  0  0  0  0
   -9.2267   48.6125    8.1317 C   0  0  0  0  0  0
   -8.5039   49.1329    9.3384 C   0  0  0  0  0  0
   -7.1075   49.1614    9.3871 C   0  0  0  0  0  0
   -6.4533   49.7337   10.4756 C   0  0  0  0  0  0
   -7.1794   50.2927   11.5390 C   0  0  0  0  0  0
   -6.4458   51.0161   12.6381 C   0  0  0  0  0  0
   -5.2132   51.0515   12.6458 O   0  0  0  0  0  0
   -7.1845   51.8953   13.5937 C   0  0  0  0  0  0
   -8.0894   51.3712   14.5273 C   0  0  0  0  0  0
   -8.7432   52.2211   15.4216 C   0  0  0  0  0  0
   -8.5144   53.5969   15.3889 C   0  0  0  0  0  0
   -9.3859   54.6189   16.4804 Cl  0  0  0  0  0  0
   -7.5901   54.1229   14.4784 C   0  0  0  0  0  0
   -7.2518   55.8164   14.4143 Cl  0  0  0  0  0  0
   -6.9198   53.2707   13.6003 C   0  0  0  0  0  0
   -8.5793   50.2160   11.5078 C   0  0  0  0  0  0
   -9.2306   49.6425   10.4205 C   0  0  0  0  0  0
   -8.6309   47.9061    7.1037 N   0  0  0  0  0  0
   -9.5990   47.6446    6.1622 C   0  0  0  0  0  0
   -9.5948   46.9767    4.9363 C   0  0  0  0  0  0
   -9.9332   44.8678    1.6969 H   0  0  0  0  0  0
   -9.1033   45.2605    3.1701 H   0  0  0  0  0  0
  -12.8976   47.4755    4.2084 H   0  0  0  0  0  0
  -12.8615   48.6432    6.3755 H   0  0  0  0  0  0
   -6.5169   48.7746    8.5684 H   0  0  0  0  0  0
   -5.3715   49.7689   10.4588 H   0  0  0  0  0  0
   -8.2859   50.3076   14.5741 H   0  0  0  0  0  0
   -9.4324   51.8176   16.1495 H   0  0  0  0  0  0
   -6.2025   53.6910   12.9088 H   0  0  0  0  0  0
   -9.1917   50.6233   12.2967 H   0  0  0  0  0  0
  -10.3108   49.6239   10.4115 H   0  0  0  0  0  0
   -8.6796   46.5348    4.5681 H   0  0  0  0  0  0
   -7.6497   47.6490    7.0740 H   0  0  0  0  0  0
  1  2  1  0  0  0
  1 29  1  0  0  0
  1 30  1  0  0  0
  2  3  2  0  0  0
  2  4  1  0  0  0
  4 28  1  0  0  0
  4  5  2  0  0  0
  5  6  1  0  0  0
  5 31  1  0  0  0
  6  7  2  0  0  0
  6 32  1  0  0  0
  7 27  1  0  0  0
  7  8  1  0  0  0
  8  9  2  0  0  0
  9 10  1  0  0  0
  9 26  1  0  0  0
 10 25  1  0  0  0
 10 11  2  0  0  0
 11 12  1  0  0  0
 11 33  1  0  0  0
 12 13  2  0  0  0
 12 34  1  0  0  0
 13 14  1  0  0  0
 13 24  1  0  0  0
 14 15  2  0  0  0
 14 16  1  0  0  0
 16 23  1  0  0  0
 16 17  2  0  0  0
 17 18  1  0  0  0
 17 35  1  0  0  0
 18 19  2  0  0  0
 18 36  1  0  0  0
 19 20  1  0  0  0
 19 21  1  0  0  0
 21 22  1  0  0  0
 21 23  2  0  0  0
 23 37  1  0  0  0
 24 25  2  0  0  0
 24 38  1  0  0  0
 25 39  1  0  0  0
 26 27  1  0  0  0
 26 41  1  0  0  0
 27 28  2  0  0  0
 28 40  1  0  0  0
M  END
> <Tot Q>
0

> <Source File Index>
151

> <i_f3d_flags>
0

> <subgroup collapsed>
0

> <Ionization Penalty>
0.0576

> <State Penalty>
0.4842

> <docking score>
-5.81178

> <glide emodel>
-74.1463

> <glide gscore>
-6.29602

> <Source File>
Sries43521_dock_SP_confgen_100_lib.maegz

> <Source Path>
C:\Users\yujie\Desktop\two_s\data

> <entry id>
90301

> <subgroup title>
Sries43521_dock_SP_confgen_100_lib

> <subgroupid>
Sries43521_dock_SP_confgen_100_lib

$$$$
