lig2
                    3D
 Schrodinger Suite 2024-1.
 74 77  0  0  1  0            999 V2000
   80.6976   22.7254   68.5090 C   0  0  0  0  0  0
   80.5868   21.5612   69.3225 O   0  0  0  0  0  0
   79.5122   21.4500   70.1828 C   0  0  0  0  0  0
   79.4067   20.2535   70.8921 C   0  0  0  0  0  0
   78.3410   20.0372   71.7608 C   0  0  0  0  0  0
   77.3667   21.0257   71.9260 C   0  0  0  0  0  0
   76.1695   20.7581   72.8299 C   0  0  0  0  0  0
   75.6691   21.9495   73.4347 O   0  0  0  0  0  0
   76.4017   22.3992   74.5683 C   0  0  0  0  0  0
   75.5950   23.4843   75.3289 C   0  0  1  0  0  0
   75.7179   24.8232   74.5734 C   0  0  0  0  0  0
   74.8007   25.8175   75.0813 N   0  0  1  0  0  0
   73.4035   25.4067   74.9980 C   0  0  0  0  0  0
   73.1323   24.0279   75.6523 C   0  0  0  0  0  0
   71.9923   23.7366   76.0299 O   0  0  0  0  0  0
   74.1804   23.1433   75.6823 N   0  0  0  0  0  0
   73.9749   21.8347   76.1515 C   0  0  0  0  0  0
   74.3648   21.4553   77.4363 C   0  0  0  0  0  0
   74.3362   20.1061   77.7921 C   0  0  0  0  0  0
   73.9040   19.1418   76.8657 C   0  0  0  0  0  0
   73.9230   17.7796   77.0737 O   0  0  0  0  0  0
   74.3721   17.2578   78.3141 C   0  0  0  0  0  0
   74.4841   15.7386   78.1527 C   0  0  0  0  0  0
   75.6707   15.2917   77.2834 C   0  0  0  0  0  0
   76.8679   15.4859   78.0275 O   0  0  0  0  0  0
   78.0271   14.8746   77.4691 C   0  0  0  0  0  0
   78.7075   15.7394   76.4086 C   0  0  0  0  0  0
   78.4032   17.1006   76.2826 C   0  0  0  0  0  0
   79.0941   17.9017   75.3751 C   0  0  0  0  0  0
   80.0836   17.3419   74.5732 C   0  0  0  0  0  0
   80.3821   15.9835   74.6740 C   0  0  0  0  0  0
   79.7002   15.1686   75.5937 C   0  0  0  0  0  0
   79.9597   13.8224   75.7721 O   0  0  0  0  0  0
   81.0711   13.2313   75.1174 C   0  0  0  0  0  0
   73.4364   19.5479   75.6174 C   0  0  0  0  0  0
   73.4734   20.8871   75.2635 C   0  0  0  0  0  0
   77.4693   22.2318   71.2301 C   0  0  0  0  0  0
   78.5402   22.4482   70.3672 C   0  0  0  0  0  0
   76.1042   23.6171   76.2825 H   0  0  0  0  0  0
   81.5607   22.6232   67.8496 H   0  0  0  0  0  0
   79.8195   22.8624   67.8743 H   0  0  0  0  0  0
   80.8474   23.6226   69.1135 H   0  0  0  0  0  0
   80.1522   19.4845   70.7581 H   0  0  0  0  0  0
   78.2666   19.0980   72.2937 H   0  0  0  0  0  0
   76.4065   20.0124   73.5925 H   0  0  0  0  0  0
   75.3799   20.3312   72.2117 H   0  0  0  0  0  0
   77.3844   22.7725   74.2670 H   0  0  0  0  0  0
   76.5849   21.5641   75.2501 H   0  0  0  0  0  0
   75.5122   24.6771   73.5118 H   0  0  0  0  0  0
   76.7345   25.1988   74.6693 H   0  0  0  0  0  0
   75.0774   26.2053   75.9906 H   0  0  0  0  0  0
   73.0917   25.3507   73.9553 H   0  0  0  0  0  0
   72.7750   26.1621   75.4698 H   0  0  0  0  0  0
   74.7485   22.1948   78.1275 H   0  0  0  0  0  0
   74.6881   19.8278   78.7723 H   0  0  0  0  0  0
   73.6365   17.4965   79.0814 H   0  0  0  0  0  0
   75.3334   17.6747   78.6203 H   0  0  0  0  0  0
   73.5556   15.3798   77.7106 H   0  0  0  0  0  0
   74.5481   15.2552   79.1293 H   0  0  0  0  0  0
   75.7040   15.8365   76.3366 H   0  0  0  0  0  0
   75.5596   14.2334   77.0398 H   0  0  0  0  0  0
   77.7907   13.8825   77.0787 H   0  0  0  0  0  0
   78.7517   14.7218   78.2704 H   0  0  0  0  0  0
   77.6461   17.5514   76.9106 H   0  0  0  0  0  0
   78.8605   18.9528   75.2974 H   0  0  0  0  0  0
   80.6271   17.9643   73.8759 H   0  0  0  0  0  0
   81.1538   15.5825   74.0373 H   0  0  0  0  0  0
   81.1737   12.2090   75.4785 H   0  0  0  0  0  0
   80.9326   13.2019   74.0352 H   0  0  0  0  0  0
   82.0008   13.7540   75.3485 H   0  0  0  0  0  0
   73.0813   18.8235   74.9024 H   0  0  0  0  0  0
   73.1569   21.1907   74.2778 H   0  0  0  0  0  0
   76.7199   22.9980   71.3507 H   0  0  0  0  0  0
   78.5946   23.3896   69.8434 H   0  0  0  0  0  0
  1  2  1  0  0  0
  1 40  1  0  0  0
  1 41  1  0  0  0
  1 42  1  0  0  0
  2  3  1  0  0  0
  3 38  1  0  0  0
  3  4  2  0  0  0
  4  5  1  0  0  0
  4 43  1  0  0  0
  5  6  2  0  0  0
  5 44  1  0  0  0
  6  7  1  0  0  0
  6 37  1  0  0  0
  7  8  1  0  0  0
  7 45  1  0  0  0
  7 46  1  0  0  0
  8  9  1  0  0  0
  9 10  1  0  0  0
  9 47  1  0  0  0
  9 48  1  0  0  0
 10 39  1  0  0  0
 10 16  1  0  0  0
 10 11  1  0  0  0
 11 12  1  0  0  0
 11 49  1  0  0  0
 11 50  1  0  0  0
 12 13  1  0  0  0
 12 51  1  0  0  0
 13 14  1  0  0  0
 13 52  1  0  0  0
 13 53  1  0  0  0
 14 15  2  0  0  0
 14 16  1  0  0  0
 16 17  1  0  0  0
 17 36  1  0  0  0
 17 18  2  0  0  0
 18 19  1  0  0  0
 18 54  1  0  0  0
 19 20  2  0  0  0
 19 55  1  0  0  0
 20 21  1  0  0  0
 20 35  1  0  0  0
 21 22  1  0  0  0
 22 23  1  0  0  0
 22 56  1  0  0  0
 22 57  1  0  0  0
 23 24  1  0  0  0
 23 58  1  0  0  0
 23 59  1  0  0  0
 24 25  1  0  0  0
 24 60  1  0  0  0
 24 61  1  0  0  0
 25 26  1  0  0  0
 26 27  1  0  0  0
 26 62  1  0  0  0
 26 63  1  0  0  0
 27 32  1  0  0  0
 27 28  2  0  0  0
 28 29  1  0  0  0
 28 64  1  0  0  0
 29 30  2  0  0  0
 29 65  1  0  0  0
 30 31  1  0  0  0
 30 66  1  0  0  0
 31 32  2  0  0  0
 31 67  1  0  0  0
 32 33  1  0  0  0
 33 34  1  0  0  0
 34 68  1  0  0  0
 34 69  1  0  0  0
 34 70  1  0  0  0
 35 36  2  0  0  0
 35 71  1  0  0  0
 36 72  1  0  0  0
 37 38  2  0  0  0
 37 73  1  0  0  0
 38 74  1  0  0  0
M  END
> <Tot Q>
0

> <Source File Index>
145

> <i_f3d_flags>
0

> <subgroup collapsed>
0

> <Ionization Penalty>
0.1809

> <State Penalty>
0.1704

> <docking score>
-9.18575

> <glide emodel>
-106.365

> <glide gscore>
-9.35611

> <tautomer probability>
1

> <Source File>
Sries12206_dock_SP_confgen_100_lib.maegz

> <Source Path>
C:\Users\yujie\Desktop\two_s\data

> <entry id>
42846

> <subgroup title>
a

> <subgroupid>
Sries12206_dock_SP_confgen_100_lib

$$$$
