lig10
                    3D
 Schrodinger Suite 2024-1.
 73 76  0  0  1  0            999 V2000
   81.3492   13.5265   74.8521 C   0  0  0  0  0  0
   80.2516   14.0735   75.5737 O   0  0  0  0  0  0
   79.9340   15.4108   75.4144 C   0  0  0  0  0  0
   80.7069   16.2983   74.6518 C   0  0  0  0  0  0
   80.3160   17.6234   74.4930 C   0  0  0  0  0  0
   79.1609   18.0918   75.1087 C   0  0  0  0  0  0
   78.3924   17.2315   75.8856 C   0  0  0  0  0  0
   78.7684   15.8915   76.0380 C   0  0  0  0  0  0
   77.9150   14.9361   76.8567 C   0  0  0  0  0  0
   76.5664   15.3758   76.9938 O   0  0  0  0  0  0
   76.2291   15.8632   78.2812 C   0  0  0  0  0  0
   74.7052   15.8169   78.4414 C   0  0  0  0  0  0
   73.9535   16.8270   77.5814 C   0  0  0  0  0  0
   74.0379   18.0685   78.2703 O   0  0  0  0  0  0
   73.9481   19.2511   77.5750 C   0  0  0  0  0  0
   73.4953   19.3614   76.2518 C   0  0  0  0  0  0
   73.4967   20.6012   75.6179 C   0  0  0  0  0  0
   73.9480   21.7300   76.3079 C   0  0  0  0  0  0
   74.0648   22.9635   75.6397 N   0  0  0  0  0  0
   72.9482   23.7335   75.4321 C   0  0  0  0  0  0
   71.8117   23.3927   75.7762 O   0  0  0  0  0  0
   73.1579   25.0590   74.6542 C   0  0  0  0  0  0
   74.4874   25.6245   74.8705 N   0  0  2  0  0  0
   75.5458   24.7065   74.5116 C   0  0  0  0  0  0
   75.4632   23.3730   75.2977 C   0  0  2  0  0  0
   76.3213   22.3006   74.5869 C   0  0  0  0  0  0
   75.6346   21.8514   73.4225 O   0  0  0  0  0  0
   76.2892   20.8233   72.6833 C   0  0  0  0  0  0
   77.4598   21.3471   71.8555 C   0  0  0  0  0  0
   77.5310   22.6868   71.4534 C   0  0  0  0  0  0
   78.6010   23.1355   70.6803 C   0  0  0  0  0  0
   79.5978   22.2450   70.2854 C   0  0  0  0  0  0
   79.5297   20.9028   70.6685 C   0  0  0  0  0  0
   80.6180   19.9335   70.2530 C   0  0  0  0  0  0
   78.4651   20.4602   71.4581 C   0  0  0  0  0  0
   74.3567   21.6259   77.6368 C   0  0  0  0  0  0
   74.3509   20.3908   78.2677 C   0  0  0  0  0  0
   75.9313   23.5631   76.2660 H   0  0  0  0  0  0
   81.4526   12.4690   75.0963 H   0  0  0  0  0  0
   81.1746   13.5961   73.7783 H   0  0  0  0  0  0
   82.2976   14.0155   75.0912 H   0  0  0  0  0  0
   81.6134   15.9784   74.1657 H   0  0  0  0  0  0
   80.9072   18.2945   73.8870 H   0  0  0  0  0  0
   78.8553   19.1201   74.9788 H   0  0  0  0  0  0
   77.4934   17.6110   76.3475 H   0  0  0  0  0  0
   77.8490   14.0178   76.2897 H   0  0  0  0  0  0
   78.4165   14.6890   77.7947 H   0  0  0  0  0  0
   76.6711   15.2210   79.0405 H   0  0  0  0  0  0
   76.6177   16.8718   78.4310 H   0  0  0  0  0  0
   74.3542   14.8230   78.2076 H   0  0  0  0  0  0
   74.4282   15.9627   79.4806 H   0  0  0  0  0  0
   74.3890   16.8546   76.5803 H   0  0  0  0  0  0
   72.9143   16.5126   77.4847 H   0  0  0  0  0  0
   73.1520   18.5007   75.7004 H   0  0  0  0  0  0
   73.1800   20.6818   74.5873 H   0  0  0  0  0  0
   73.0081   24.8497   73.5944 H   0  0  0  0  0  0
   72.3967   25.7849   74.9487 H   0  0  0  0  0  0
   74.6332   26.0846   75.7720 H   0  0  0  0  0  0
   75.4653   24.5099   73.4407 H   0  0  0  0  0  0
   76.5090   25.1876   74.6818 H   0  0  0  0  0  0
   77.3043   22.7052   74.3411 H   0  0  0  0  0  0
   76.4907   21.4583   75.2609 H   0  0  0  0  0  0
   76.6002   20.0133   73.3465 H   0  0  0  0  0  0
   75.5665   20.3993   71.9862 H   0  0  0  0  0  0
   76.7588   23.3846   71.7373 H   0  0  0  0  0  0
   78.6533   24.1729   70.3817 H   0  0  0  0  0  0
   80.4189   22.6027   69.6815 H   0  0  0  0  0  0
   81.5579   20.4489   70.0579 H   0  0  0  0  0  0
   80.8084   19.2228   71.0553 H   0  0  0  0  0  0
   80.3215   19.3795   69.3633 H   0  0  0  0  0  0
   78.4167   19.4215   71.7554 H   0  0  0  0  0  0
   74.7081   22.4948   78.1729 H   0  0  0  0  0  0
   74.6914   20.3144   79.2886 H   0  0  0  0  0  0
  1  2  1  0  0  0
  1 39  1  0  0  0
  1 40  1  0  0  0
  1 41  1  0  0  0
  2  3  1  0  0  0
  3  8  1  0  0  0
  3  4  2  0  0  0
  4  5  1  0  0  0
  4 42  1  0  0  0
  5  6  2  0  0  0
  5 43  1  0  0  0
  6  7  1  0  0  0
  6 44  1  0  0  0
  7  8  2  0  0  0
  7 45  1  0  0  0
  8  9  1  0  0  0
  9 10  1  0  0  0
  9 46  1  0  0  0
  9 47  1  0  0  0
 10 11  1  0  0  0
 11 12  1  0  0  0
 11 48  1  0  0  0
 11 49  1  0  0  0
 12 13  1  0  0  0
 12 50  1  0  0  0
 12 51  1  0  0  0
 13 14  1  0  0  0
 13 52  1  0  0  0
 13 53  1  0  0  0
 14 15  1  0  0  0
 15 37  1  0  0  0
 15 16  2  0  0  0
 16 17  1  0  0  0
 16 54  1  0  0  0
 17 18  2  0  0  0
 17 55  1  0  0  0
 18 19  1  0  0  0
 18 36  1  0  0  0
 19 25  1  0  0  0
 19 20  1  0  0  0
 20 21  2  0  0  0
 20 22  1  0  0  0
 22 23  1  0  0  0
 22 56  1  0  0  0
 22 57  1  0  0  0
 23 24  1  0  0  0
 23 58  1  0  0  0
 24 25  1  0  0  0
 24 59  1  0  0  0
 24 60  1  0  0  0
 25 38  1  0  0  0
 25 26  1  0  0  0
 26 27  1  0  0  0
 26 61  1  0  0  0
 26 62  1  0  0  0
 27 28  1  0  0  0
 28 29  1  0  0  0
 28 63  1  0  0  0
 28 64  1  0  0  0
 29 35  1  0  0  0
 29 30  2  0  0  0
 30 31  1  0  0  0
 30 65  1  0  0  0
 31 32  2  0  0  0
 31 66  1  0  0  0
 32 33  1  0  0  0
 32 67  1  0  0  0
 33 34  1  0  0  0
 33 35  2  0  0  0
 34 68  1  0  0  0
 34 69  1  0  0  0
 34 70  1  0  0  0
 35 71  1  0  0  0
 36 37  2  0  0  0
 36 72  1  0  0  0
 37 73  1  0  0  0
M  END
> <Tot Q>
0

> <Source File Index>
552

> <i_f3d_flags>
0

> <subgroup collapsed>
0

> <Ionization Penalty>
0.1793

> <State Penalty>
0.1688

> <docking score>
-8.39208

> <glide emodel>
-94.958

> <glide gscore>
-8.56087

> <tautomer probability>
1

> <Source File>
Sries12206_dock_SP_confgen_100_lib.maegz

> <Source Path>
C:\Users\yujie\Desktop\two_s\data

> <entry id>
43253

> <subgroup title>
a

> <subgroupid>
Sries12206_dock_SP_confgen_100_lib

$$$$
