lig20
                    3D
 Schrodinger Suite 2023-4.
 70 73  0  0  1  0            999 V2000
   79.5417   18.3957   74.0962 C   0  0  0  0  0  0
   79.1123   17.6041   75.1996 O   0  0  0  0  0  0
   79.5403   16.2922   75.2994 C   0  0  0  0  0  0
   80.3927   15.6857   74.3595 C   0  0  0  0  0  0
   80.8085   14.3662   74.5164 C   0  0  0  0  0  0
   80.3604   13.6208   75.5994 C   0  0  0  0  0  0
   79.5031   14.2020   76.5308 C   0  0  0  0  0  0
   79.0941   15.5335   76.3963 C   0  0  0  0  0  0
   78.1871   16.1328   77.4722 C   0  0  0  0  0  0
   77.0861   15.2609   77.7215 O   0  0  0  0  0  0
   75.8218   15.7085   77.2477 C   0  0  0  0  0  0
   75.1646   16.6540   78.2694 C   0  0  0  0  0  0
   73.7039   16.9906   77.9421 C   0  0  0  0  0  0
   73.5582   17.6282   76.6817 O   0  0  0  0  0  0
   73.7426   18.9908   76.5437 C   0  0  0  0  0  0
   73.5293   19.4826   75.2606 C   0  0  0  0  0  0
   73.6946   20.8259   74.9811 C   0  0  0  0  0  0
   74.0674   21.7049   75.9919 C   0  0  0  0  0  0
   74.2688   23.0474   75.6297 N   0  0  0  0  0  0
   73.2103   23.9213   75.6637 C   0  0  0  0  0  0
   72.0792   23.5974   76.0414 O   0  0  0  0  0  0
   73.4399   25.3281   75.0485 C   0  0  0  0  0  0
   74.8340   25.7590   75.0813 N   0  0  2  0  0  0
   75.7608   24.7791   74.5662 C   0  0  0  0  0  0
   75.6761   23.4296   75.3129 C   0  0  2  0  0  0
   76.5393   22.3900   74.5503 C   0  0  0  0  0  0
   75.9431   22.0725   73.2934 O   0  0  0  0  0  0
   76.6474   21.1083   72.5135 C   0  0  0  0  0  0
   77.8239   21.7047   71.7438 C   0  0  0  0  0  0
   78.0382   23.0897   71.6845 C   0  0  0  0  0  0
   79.1050   23.6078   70.9543 C   0  0  0  0  0  0
   79.9522   22.7507   70.2533 C   0  0  0  0  0  0
   79.7472   21.3740   70.3016 C   0  0  0  0  0  0
   78.6888   20.8512   71.0462 C   0  0  0  0  0  0
   78.5032   19.5120   71.0815 F   0  0  0  0  0  0
   74.2785   21.2396   77.2927 C   0  0  0  0  0  0
   74.1159   19.8783   77.5690 C   0  0  0  0  0  0
   76.1544   23.5589   76.2818 H   0  0  0  0  0  0
   79.1612   19.4096   74.2154 H   0  0  0  0  0  0
   80.6306   18.4243   74.0375 H   0  0  0  0  0  0
   79.1582   18.0229   73.1478 H   0  0  0  0  0  0
   80.7576   16.2200   73.4950 H   0  0  0  0  0  0
   81.4748   13.9220   73.7943 H   0  0  0  0  0  0
   80.6780   12.5947   75.7181 H   0  0  0  0  0  0
   79.1653   13.6202   77.3762 H   0  0  0  0  0  0
   78.7585   16.2027   78.3992 H   0  0  0  0  0  0
   77.8698   17.1491   77.2327 H   0  0  0  0  0  0
   75.9070   16.1742   76.2654 H   0  0  0  0  0  0
   75.1980   14.8235   77.1194 H   0  0  0  0  0  0
   75.1583   16.1554   79.2355 H   0  0  0  0  0  0
   75.7519   17.5649   78.3842 H   0  0  0  0  0  0
   73.1580   16.0503   77.8814 H   0  0  0  0  0  0
   73.2240   17.5600   78.7376 H   0  0  0  0  0  0
   73.2349   18.8229   74.4604 H   0  0  0  0  0  0
   73.5582   21.1823   73.9697 H   0  0  0  0  0  0
   73.0798   25.3081   74.0194 H   0  0  0  0  0  0
   72.8264   26.0593   75.5775 H   0  0  0  0  0  0
   75.1360   26.1528   75.9835 H   0  0  0  0  0  0
   75.5545   24.6414   73.5027 H   0  0  0  0  0  0
   76.7599   25.1818   74.6732 H   0  0  0  0  0  0
   77.5516   22.7737   74.4144 H   0  0  0  0  0  0
   76.6393   21.4825   75.1495 H   0  0  0  0  0  0
   76.9694   20.2659   73.1304 H   0  0  0  0  0  0
   75.9519   20.7083   71.7749 H   0  0  0  0  0  0
   77.3809   23.7767   72.1975 H   0  0  0  0  0  0
   79.2637   24.6771   70.9178 H   0  0  0  0  0  0
   80.7579   23.1620   69.6644 H   0  0  0  0  0  0
   80.4036   20.7072   69.7613 H   0  0  0  0  0  0
   74.5740   21.9266   78.0745 H   0  0  0  0  0  0
   74.2875   19.5293   78.5747 H   0  0  0  0  0  0
  1  2  1  0  0  0
  1 39  1  0  0  0
  1 40  1  0  0  0
  1 41  1  0  0  0
  2  3  1  0  0  0
  3  8  1  0  0  0
  3  4  2  0  0  0
  4  5  1  0  0  0
  4 42  1  0  0  0
  5  6  2  0  0  0
  5 43  1  0  0  0
  6  7  1  0  0  0
  6 44  1  0  0  0
  7  8  2  0  0  0
  7 45  1  0  0  0
  8  9  1  0  0  0
  9 10  1  0  0  0
  9 46  1  0  0  0
  9 47  1  0  0  0
 10 11  1  0  0  0
 11 12  1  0  0  0
 11 48  1  0  0  0
 11 49  1  0  0  0
 12 13  1  0  0  0
 12 50  1  0  0  0
 12 51  1  0  0  0
 13 14  1  0  0  0
 13 52  1  0  0  0
 13 53  1  0  0  0
 14 15  1  0  0  0
 15 37  1  0  0  0
 15 16  2  0  0  0
 16 17  1  0  0  0
 16 54  1  0  0  0
 17 18  2  0  0  0
 17 55  1  0  0  0
 18 19  1  0  0  0
 18 36  1  0  0  0
 19 25  1  0  0  0
 19 20  1  0  0  0
 20 21  2  0  0  0
 20 22  1  0  0  0
 22 23  1  0  0  0
 22 56  1  0  0  0
 22 57  1  0  0  0
 23 24  1  0  0  0
 23 58  1  0  0  0
 24 25  1  0  0  0
 24 59  1  0  0  0
 24 60  1  0  0  0
 25 38  1  0  0  0
 25 26  1  0  0  0
 26 27  1  0  0  0
 26 61  1  0  0  0
 26 62  1  0  0  0
 27 28  1  0  0  0
 28 29  1  0  0  0
 28 63  1  0  0  0
 28 64  1  0  0  0
 29 34  1  0  0  0
 29 30  2  0  0  0
 30 31  1  0  0  0
 30 65  1  0  0  0
 31 32  2  0  0  0
 31 66  1  0  0  0
 32 33  1  0  0  0
 32 67  1  0  0  0
 33 34  2  0  0  0
 33 68  1  0  0  0
 34 35  1  0  0  0
 36 37  2  0  0  0
 36 69  1  0  0  0
 37 70  1  0  0  0
M  END
> <i_epik_Tot_Q>
0

> <i_epik_Tot_abs_Q>
0

> <i_i_glide_confnum>
9

> <i_i_glide_lignum>
41

> <i_i_glide_posenum>
197

> <i_i_glide_rotatable_bonds>
13

> <i_lp_mmshare_version>
51139

> <i_m_source_file_index>
21

> <i_f3d_flags>
0

> <b_lp_Chiralities_Consistent>
1

> <r_epik_Charging_Adjusted_Penalty>
0.167864

> <r_epik_Ionization_Penalty>
0.1784

> <r_epik_Ionization_Penalty_Charging>
0

> <r_epik_Ionization_Penalty_Neutral>
0.1784

> <r_epik_State_Penalty>
0.1679

> <r_i_docking_score>
-8.93762

> <r_i_glide_ecoul>
-4.35715

> <r_i_glide_eff_state_penalty>
0.167864

> <r_i_glide_einternal>
10.1269

> <r_i_glide_emodel>
-96.4496

> <r_i_glide_energy>
-64.6345

> <r_i_glide_erotb>
0.870723

> <r_i_glide_esite>
-0.126114

> <r_i_glide_evdw>
-60.2774

> <r_i_glide_gscore>
-9.10548

> <r_i_glide_hbond>
-0.16

> <r_i_glide_ligand_efficiency>
-0.241557

> <r_i_glide_ligand_efficiency_ln>
-1.93836

> <r_i_glide_ligand_efficiency_sa>
-0.804923

> <r_i_glide_lipo>
-5.31291

> <r_i_glide_metal>
-0

> <r_i_glide_rewards>
-0.709745

> <r_lp_Energy>
61.3507

> <r_lp_tautomer_probability>
1

> <s_epik_cmdline>
J2VwaWtfcHl0aG9uJywgJy1waHQnLCAnMi4wJywgJy1waCcsICc3LjQnLCAnLXRuJywgJzgnLCAnLW1hJywgJzIwMCcsICctaW1hZScsICc8aW5maWxlLm1hZT4nLCAnLW9tYWUnLCAnPG91dGZpbGUubWFlPic=

> <s_epik_input>
W0NIM11PYzFbY0hdW2NIXVtjSF1bY0hdYzFbQ0gyXU9bQ0gyXVtDSDJdW0NIMl1PYzJbY0hdW2NIXWMoW2NIXVtjSF0yKU4zQyg9TylbQ0gyXVtOSF1bQ0gyXVtDQEBIXTNbQ0gyXU9bQ0gyXWM0W2NIXVtjSF1bY0hdW2NIXWM0Rg==

> <s_i_glide_gridfile>
Sries12988-001-gridgen

> <s_lp_Force_Field>
OPLS3e

> <s_lp_Variant>
lig20-1

> <s_m_source_file>
/home/user-home/yujie/0_PBCNetv2/data/0_0_high_sim/0_noncov/Sries12206/ligprep_input.csv

$$$$
