lig5
                    3D
 Schrodinger Suite 2023-4.
 75 78  0  0  1  0            999 V2000
   79.3293   18.5516   75.3752 C   0  0  0  0  0  0
   78.8546   17.3165   75.8791 O   0  0  0  0  0  0
   79.5602   16.1573   75.6162 C   0  0  0  0  0  0
   80.6443   16.0809   74.7222 C   0  0  0  0  0  0
   81.3004   14.8717   74.5054 C   0  0  0  0  0  0
   80.8978   13.7253   75.1782 C   0  0  0  0  0  0
   79.8390   13.7929   76.0795 C   0  0  0  0  0  0
   79.1460   14.9932   76.2834 C   0  0  0  0  0  0
   77.9414   15.0304   77.2218 C   0  0  0  0  0  0
   76.8186   15.5411   76.5063 O   0  0  0  0  0  0
   75.5348   15.1190   76.9417 C   0  0  0  0  0  0
   75.0275   15.8348   78.2105 C   0  0  0  0  0  0
   74.9929   17.3738   78.1367 C   0  0  0  0  0  0
   74.0026   17.8302   77.2156 O   0  0  0  0  0  0
   73.8987   19.1910   76.9764 C   0  0  0  0  0  0
   73.2958   19.5740   75.7778 C   0  0  0  0  0  0
   73.2475   20.9141   75.4090 C   0  0  0  0  0  0
   73.8013   21.8907   76.2396 C   0  0  0  0  0  0
   73.8792   23.2319   75.7921 N   0  0  0  0  0  0
   72.7628   24.0282   75.8809 C   0  0  0  0  0  0
   71.6634   23.6110   76.2462 O   0  0  0  0  0  0
   72.9081   25.5228   75.5014 C   0  0  0  0  0  0
   74.3582   26.0221   75.4805 N   0  3  0  0  0  0
   75.2349   25.0671   74.6729 C   0  0  0  0  0  0
   75.2468   23.6823   75.3640 C   0  0  2  0  0  0
   76.0952   22.6732   74.5448 C   0  0  0  0  0  0
   75.3501   22.1239   73.4676 O   0  0  0  0  0  0
   75.9017   20.9373   72.8939 C   0  0  0  0  0  0
   77.1636   21.1558   72.0555 C   0  0  0  0  0  0
   78.1086   20.1234   72.0251 C   0  0  0  0  0  0
   79.2532   20.2299   71.2426 C   0  0  0  0  0  0
   79.4787   21.3830   70.4983 C   0  0  0  0  0  0
   78.5487   22.4191   70.5195 C   0  0  0  0  0  0
   77.3708   22.3184   71.2871 C   0  0  0  0  0  0
   76.4014   23.3031   71.3069 O   0  0  0  0  0  0
   76.5762   24.4830   70.5326 C   0  0  0  0  0  0
   74.3385   21.5285   77.4771 C   0  0  0  0  0  0
   74.3691   20.1860   77.8497 C   0  0  0  0  0  0
   75.8167   23.7985   76.2814 H   0  0  0  0  0  0
   78.6027   19.3343   75.5913 H   0  0  0  0  0  0
   80.2661   18.8176   75.8690 H   0  0  0  0  0  0
   79.4692   18.5401   74.2934 H   0  0  0  0  0  0
   81.0022   16.9540   74.1991 H   0  0  0  0  0  0
   82.1339   14.8256   73.8231 H   0  0  0  0  0  0
   81.4179   12.7933   75.0202 H   0  0  0  0  0  0
   79.5594   12.8972   76.6062 H   0  0  0  0  0  0
   77.7474   14.0292   77.6143 H   0  0  0  0  0  0
   78.1490   15.6737   78.0782 H   0  0  0  0  0  0
   74.8338   15.3043   76.1273 H   0  0  0  0  0  0
   75.5582   14.0357   77.0742 H   0  0  0  0  0  0
   74.0224   15.4757   78.4396 H   0  0  0  0  0  0
   75.6278   15.5413   79.0672 H   0  0  0  0  0  0
   74.7575   17.7543   79.1284 H   0  0  0  0  0  0
   75.9793   17.7598   77.8658 H   0  0  0  0  0  0
   72.9056   18.8246   75.1060 H   0  0  0  0  0  0
   72.8244   21.1876   74.4542 H   0  0  0  0  0  0
   72.4977   25.7049   74.5100 H   0  0  0  0  0  0
   72.3870   26.1545   76.2200 H   0  0  0  0  0  0
   74.3955   26.9698   75.1046 H   0  0  0  0  0  0
   74.8437   25.0399   73.6552 H   0  0  0  0  0  0
   76.2221   25.5203   74.6610 H   0  0  0  0  0  0
   77.0100   23.1402   74.1784 H   0  0  0  0  0  0
   76.4130   21.8769   75.2224 H   0  0  0  0  0  0
   76.0600   20.1833   73.6674 H   0  0  0  0  0  0
   75.1620   20.5044   72.2299 H   0  0  0  0  0  0
   77.9463   19.2175   72.5900 H   0  0  0  0  0  0
   79.9707   19.4233   71.2145 H   0  0  0  0  0  0
   80.3721   21.4760   69.8946 H   0  0  0  0  0  0
   78.7555   23.2938   69.9243 H   0  0  0  0  0  0
   75.7197   25.1406   70.6811 H   0  0  0  0  0  0
   77.4706   25.0316   70.8337 H   0  0  0  0  0  0
   76.6359   24.2573   69.4673 H   0  0  0  0  0  0
   74.7563   22.2838   78.1291 H   0  0  0  0  0  0
   74.8135   19.9315   78.7989 H   0  0  0  0  0  0
   74.7369   26.1226   76.4277 H   0  0  0  0  0  0
  1  2  1  0  0  0
  1 40  1  0  0  0
  1 41  1  0  0  0
  1 42  1  0  0  0
  2  3  1  0  0  0
  3  8  1  0  0  0
  3  4  2  0  0  0
  4  5  1  0  0  0
  4 43  1  0  0  0
  5  6  2  0  0  0
  5 44  1  0  0  0
  6  7  1  0  0  0
  6 45  1  0  0  0
  7  8  2  0  0  0
  7 46  1  0  0  0
  8  9  1  0  0  0
  9 10  1  0  0  0
  9 47  1  0  0  0
  9 48  1  0  0  0
 10 11  1  0  0  0
 11 12  1  0  0  0
 11 49  1  0  0  0
 11 50  1  0  0  0
 12 13  1  0  0  0
 12 51  1  0  0  0
 12 52  1  0  0  0
 13 14  1  0  0  0
 13 53  1  0  0  0
 13 54  1  0  0  0
 14 15  1  0  0  0
 15 38  1  0  0  0
 15 16  2  0  0  0
 16 17  1  0  0  0
 16 55  1  0  0  0
 17 18  2  0  0  0
 17 56  1  0  0  0
 18 19  1  0  0  0
 18 37  1  0  0  0
 19 25  1  0  0  0
 19 20  1  0  0  0
 20 21  2  0  0  0
 20 22  1  0  0  0
 22 23  1  0  0  0
 22 57  1  0  0  0
 22 58  1  0  0  0
 23 24  1  0  0  0
 23 59  1  0  0  0
 23 75  1  0  0  0
 24 25  1  0  0  0
 24 60  1  0  0  0
 24 61  1  0  0  0
 25 39  1  0  0  0
 25 26  1  0  0  0
 26 27  1  0  0  0
 26 62  1  0  0  0
 26 63  1  0  0  0
 27 28  1  0  0  0
 28 29  1  0  0  0
 28 64  1  0  0  0
 28 65  1  0  0  0
 29 34  1  0  0  0
 29 30  2  0  0  0
 30 31  1  0  0  0
 30 66  1  0  0  0
 31 32  2  0  0  0
 31 67  1  0  0  0
 32 33  1  0  0  0
 32 68  1  0  0  0
 33 34  2  0  0  0
 33 69  1  0  0  0
 34 35  1  0  0  0
 35 36  1  0  0  0
 36 70  1  0  0  0
 36 71  1  0  0  0
 36 72  1  0  0  0
 37 38  2  0  0  0
 37 73  1  0  0  0
 38 74  1  0  0  0
M  CHG  1  23   1
M  END
> <i_epik_Tot_Q>
1

> <i_epik_Tot_abs_Q>
1

> <i_i_glide_confnum>
788

> <i_i_glide_lignum>
12

> <i_i_glide_posenum>
14

> <i_i_glide_rotatable_bonds>
14

> <i_lp_mmshare_version>
51139

> <i_m_source_file_index>
6

> <i_f3d_flags>
0

> <b_lp_Chiralities_Consistent>
1

> <r_epik_Charging_Adjusted_Penalty>
1.62731

> <r_epik_Ionization_Penalty>
0.7981

> <r_epik_Ionization_Penalty_Charging>
0.7981

> <r_epik_Ionization_Penalty_Neutral>
0

> <r_epik_State_Penalty>
0.8292

> <r_i_docking_score>
-9.1974

> <r_i_glide_ecoul>
-6.67551

> <r_i_glide_eff_state_penalty>
0.829177

> <r_i_glide_einternal>
7.5005

> <r_i_glide_emodel>
-121.279

> <r_i_glide_energy>
-67.6485

> <r_i_glide_erotb>
0.906695

> <r_i_glide_esite>
-0.224077

> <r_i_glide_evdw>
-60.973

> <r_i_glide_gscore>
-10.0266

> <r_i_glide_hbond>
-0.548041

> <r_i_glide_ligand_efficiency>
-0.242037

> <r_i_glide_ligand_efficiency_ln>
-1.98323

> <r_i_glide_ligand_efficiency_sa>
-0.813722

> <r_i_glide_lipo>
-5.57596

> <r_i_glide_metal>
-0

> <r_i_glide_rewards>
-0.535215

> <r_lp_Energy>
67.5358

> <r_lp_tautomer_probability>
1

> <s_epik_cmdline>
J2VwaWtfcHl0aG9uJywgJy1waHQnLCAnMi4wJywgJy1waCcsICc3LjQnLCAnLXRuJywgJzgnLCAnLW1hJywgJzIwMCcsICctaW1hZScsICc8aW5maWxlLm1hZT4nLCAnLW9tYWUnLCAnPG91dGZpbGUubWFlPic=

> <s_epik_input>
W0NIM11PYzFbY0hdW2NIXVtjSF1bY0hdYzFbQ0gyXU9bQ0gyXVtDSDJdW0NIMl1PYzJbY0hdW2NIXWMoW2NIXVtjSF0yKU4zQyg9TylbQ0gyXVtOSF1bQ0gyXVtDQEBIXTNbQ0gyXU9bQ0gyXWM0W2NIXVtjSF1bY0hdW2NIXWM0T1tDSDNd

> <s_i_glide_gridfile>
Sries12988-001-gridgen

> <s_lp_Force_Field>
OPLS3e

> <s_lp_Variant>
lig5-2

> <s_m_source_file>
/home/user-home/yujie/0_PBCNetv2/data/0_0_high_sim/0_noncov/Sries12206/ligprep_input.csv

$$$$
