lig11
                    3D
 Schrodinger Suite 2024-1.
 73 76  0  0  1  0            999 V2000
   81.1246   13.4138   75.0826 C   0  0  0  0  0  0
   80.0121   13.9741   75.7667 O   0  0  0  0  0  0
   79.7027   15.3103   75.5915 C   0  0  0  0  0  0
   80.3574   16.1486   74.6726 C   0  0  0  0  0  0
   80.0183   17.4977   74.5766 C   0  0  0  0  0  0
   79.0075   18.0246   75.3758 C   0  0  0  0  0  0
   78.3434   17.1995   76.2812 C   0  0  0  0  0  0
   78.6924   15.8494   76.4052 C   0  0  0  0  0  0
   78.0402   14.9662   77.4684 C   0  0  0  0  0  0
   76.8720   15.5480   78.0362 O   0  0  0  0  0  0
   75.6730   15.3252   77.2999 C   0  0  0  0  0  0
   74.4928   15.7817   78.1693 C   0  0  0  0  0  0
   74.3934   17.3016   78.3247 C   0  0  0  0  0  0
   73.9571   17.8197   77.0787 O   0  0  0  0  0  0
   73.9234   19.1807   76.8726 C   0  0  0  0  0  0
   74.3379   20.1503   77.8007 C   0  0  0  0  0  0
   74.3572   21.4990   77.4405 C   0  0  0  0  0  0
   73.9545   21.8710   76.1573 C   0  0  0  0  0  0
   74.1555   23.1803   75.6864 N   0  0  0  0  0  0
   73.1146   24.0730   75.6763 C   0  0  0  0  0  0
   71.9791   23.7903   76.0726 O   0  0  0  0  0  0
   73.3812   25.4489   75.0111 C   0  0  0  0  0  0
   74.7803   25.8568   75.0814 N   0  0  2  0  0  0
   75.6969   24.8579   74.5782 C   0  0  0  0  0  0
   75.5693   23.5137   75.3248 C   0  0  2  0  0  0
   76.3562   22.4324   74.5416 C   0  0  0  0  0  0
   75.6135   22.0345   73.3922 O   0  0  0  0  0  0
   75.9583   20.7547   72.8704 C   0  0  0  0  0  0
   77.2401   20.7872   72.0495 C   0  0  0  0  0  0
   78.0947   19.6837   72.0675 C   0  0  0  0  0  0
   79.2362   19.6765   71.2723 C   0  0  0  0  0  0
   79.5292   20.7689   70.4572 C   0  0  0  0  0  0
   80.7591   20.7395   69.5696 C   0  0  0  0  0  0
   78.6797   21.8770   70.4425 C   0  0  0  0  0  0
   77.5354   21.8867   71.2388 C   0  0  0  0  0  0
   73.4648   20.9173   75.2675 C   0  0  0  0  0  0
   73.4567   19.5773   75.6232 C   0  0  0  0  0  0
   76.0817   23.6239   76.2805 H   0  0  0  0  0  0
   81.3125   12.4161   75.4788 H   0  0  0  0  0  0
   80.9307   13.3244   74.0132 H   0  0  0  0  0  0
   82.0311   13.9954   75.2399 H   0  0  0  0  0  0
   81.1398   15.7725   74.0281 H   0  0  0  0  0  0
   80.5434   18.1386   73.8835 H   0  0  0  0  0  0
   78.7403   19.0688   75.2961 H   0  0  0  0  0  0
   77.5658   17.6244   76.8978 H   0  0  0  0  0  0
   77.8253   13.9700   77.0804 H   0  0  0  0  0  0
   78.7758   14.8404   78.2644 H   0  0  0  0  0  0
   75.6937   15.8564   76.3464 H   0  0  0  0  0  0
   75.5595   14.2642   77.0747 H   0  0  0  0  0  0
   73.5588   15.4245   77.7417 H   0  0  0  0  0  0
   74.5666   15.3171   79.1527 H   0  0  0  0  0  0
   73.6504   17.5445   79.0815 H   0  0  0  0  0  0
   75.3561   17.7150   78.6395 H   0  0  0  0  0  0
   74.6840   19.8750   78.7852 H   0  0  0  0  0  0
   74.7328   22.2442   78.1290 H   0  0  0  0  0  0
   73.0614   25.3855   73.9700 H   0  0  0  0  0  0
   72.7558   26.2082   75.4857 H   0  0  0  0  0  0
   75.0624   26.2470   75.9932 H   0  0  0  0  0  0
   75.4999   24.7185   73.5141 H   0  0  0  0  0  0
   76.7154   25.2215   74.6808 H   0  0  0  0  0  0
   77.3466   22.7877   74.2490 H   0  0  0  0  0  0
   76.5233   21.5844   75.2078 H   0  0  0  0  0  0
   76.0172   20.0233   73.6758 H   0  0  0  0  0  0
   75.1581   20.4228   72.2161 H   0  0  0  0  0  0
   77.8655   18.8237   72.6795 H   0  0  0  0  0  0
   79.8936   18.8226   71.2835 H   0  0  0  0  0  0
   81.5576   21.3341   70.0171 H   0  0  0  0  0  0
   81.1261   19.7248   69.4137 H   0  0  0  0  0  0
   80.5272   21.1535   68.5873 H   0  0  0  0  0  0
   78.8974   22.7237   69.8084 H   0  0  0  0  0  0
   76.8707   22.7404   71.2152 H   0  0  0  0  0  0
   73.1579   21.2130   74.2774 H   0  0  0  0  0  0
   73.1228   18.8357   74.9117 H   0  0  0  0  0  0
  1  2  1  0  0  0
  1 39  1  0  0  0
  1 40  1  0  0  0
  1 41  1  0  0  0
  2  3  1  0  0  0
  3  8  1  0  0  0
  3  4  2  0  0  0
  4  5  1  0  0  0
  4 42  1  0  0  0
  5  6  2  0  0  0
  5 43  1  0  0  0
  6  7  1  0  0  0
  6 44  1  0  0  0
  7  8  2  0  0  0
  7 45  1  0  0  0
  8  9  1  0  0  0
  9 10  1  0  0  0
  9 46  1  0  0  0
  9 47  1  0  0  0
 10 11  1  0  0  0
 11 12  1  0  0  0
 11 48  1  0  0  0
 11 49  1  0  0  0
 12 13  1  0  0  0
 12 50  1  0  0  0
 12 51  1  0  0  0
 13 14  1  0  0  0
 13 52  1  0  0  0
 13 53  1  0  0  0
 14 15  1  0  0  0
 15 37  1  0  0  0
 15 16  2  0  0  0
 16 17  1  0  0  0
 16 54  1  0  0  0
 17 18  2  0  0  0
 17 55  1  0  0  0
 18 19  1  0  0  0
 18 36  1  0  0  0
 19 25  1  0  0  0
 19 20  1  0  0  0
 20 21  2  0  0  0
 20 22  1  0  0  0
 22 23  1  0  0  0
 22 56  1  0  0  0
 22 57  1  0  0  0
 23 24  1  0  0  0
 23 58  1  0  0  0
 24 25  1  0  0  0
 24 59  1  0  0  0
 24 60  1  0  0  0
 25 38  1  0  0  0
 25 26  1  0  0  0
 26 27  1  0  0  0
 26 61  1  0  0  0
 26 62  1  0  0  0
 27 28  1  0  0  0
 28 29  1  0  0  0
 28 63  1  0  0  0
 28 64  1  0  0  0
 29 35  1  0  0  0
 29 30  2  0  0  0
 30 31  1  0  0  0
 30 65  1  0  0  0
 31 32  2  0  0  0
 31 66  1  0  0  0
 32 33  1  0  0  0
 32 34  1  0  0  0
 33 67  1  0  0  0
 33 68  1  0  0  0
 33 69  1  0  0  0
 34 35  2  0  0  0
 34 70  1  0  0  0
 35 71  1  0  0  0
 36 37  2  0  0  0
 36 72  1  0  0  0
 37 73  1  0  0  0
M  END
> <Tot Q>
0

> <Source File Index>
68

> <i_f3d_flags>
0

> <subgroup collapsed>
0

> <Ionization Penalty>
0.1795

> <State Penalty>
0.169

> <docking score>
-9.50416

> <glide emodel>
-105.191

> <glide gscore>
-9.67316

> <tautomer probability>
1

> <Source File>
Sries12206_dock_SP_confgen_100_lib.maegz

> <Source Path>
C:\Users\yujie\Desktop\two_s\data

> <entry id>
42769

> <subgroup title>
a

> <subgroupid>
Sries12206_dock_SP_confgen_100_lib

$$$$
