MCL1_29
                    3D
 Schrodinger Suite 2020-3.
 41 43  0  0  1  0            999 V2000
   34.1519   -8.9201   19.1496 O   0  0  0  0  0  0
   35.2152   -8.9178   19.8123 C   0  0  0  0  0  0
   36.2788   -9.4592   19.4333 O   0  5  0  0  0  0
   35.2104   -8.2577   21.1334 C   0  0  0  0  0  0
   33.9978   -7.8404   21.6343 N   0  0  0  0  0  0
   34.1412   -7.3425   22.9095 C   0  0  0  0  0  0
   33.1960   -6.8547   23.8198 C   0  0  0  0  0  0
   33.6692   -6.4560   25.0711 C   0  0  0  0  0  0
   35.0201   -6.5234   25.4002 C   0  0  0  0  0  0
   35.9617   -6.9832   24.4815 C   0  0  0  0  0  0
   35.5331   -7.4161   23.2149 C   0  0  0  0  0  0
   36.2083   -7.9692   22.0672 C   0  0  0  0  0  0
   37.6948   -8.2404   21.9578 C   0  0  0  0  0  0
   38.0437   -9.7011   22.3018 C   0  0  0  0  0  0
   37.8270  -10.1050   23.7752 C   0  0  0  0  0  0
   38.4610   -9.1503   24.6213 O   0  0  0  0  0  0
   38.9904   -9.5398   25.8335 C   0  0  0  0  0  0
   40.2785   -9.0594   26.0840 C   0  0  0  0  0  0
   40.9189   -9.2875   27.2971 C   0  0  0  0  0  0
   40.2656  -10.0070   28.2898 C   0  0  0  0  0  0
   38.9825  -10.5011   28.0644 C   0  0  0  0  0  0
   38.3128  -10.2596   26.8520 C   0  0  0  0  0  0
   36.8298  -10.6265   26.7557 C   0  0  0  0  0  0
   36.6786  -11.6662   25.9479 F   0  0  0  0  0  0
   36.3086  -10.9606   27.9387 F   0  0  0  0  0  0
   36.1178   -9.6011   26.2907 F   0  0  0  0  0  0
   33.1493   -7.9543   21.0964 H   0  0  0  0  0  0
   32.1443   -6.8020   23.5798 H   0  0  0  0  0  0
   32.9697   -6.0839   25.8067 H   0  0  0  0  0  0
   35.3465   -6.2048   26.3806 H   0  0  0  0  0  0
   37.0063   -7.0235   24.7521 H   0  0  0  0  0  0
   38.2700   -7.5652   22.5942 H   0  0  0  0  0  0
   38.0383   -8.0218   20.9450 H   0  0  0  0  0  0
   39.0790   -9.8610   22.0290 H   0  0  0  0  0  0
   37.4755  -10.3747   21.6598 H   0  0  0  0  0  0
   38.2177  -11.1123   23.9365 H   0  0  0  0  0  0
   36.7573  -10.1295   23.9773 H   0  0  0  0  0  0
   40.7804   -8.4853   25.3231 H   0  0  0  0  0  0
   41.9120   -8.8981   27.4685 H   0  0  0  0  0  0
   40.7503  -10.1798   29.2397 H   0  0  0  0  0  0
   38.4943  -11.0337   28.8684 H   0  0  0  0  0  0
  1  2  2  0  0  0
  2  3  1  0  0  0
  2  4  1  0  0  0
  4 12  2  0  0  0
  4  5  1  0  0  0
  5 27  1  0  0  0
  5  6  1  0  0  0
  6 11  2  0  0  0
  6  7  1  0  0  0
  7  8  2  0  0  0
  7 28  1  0  0  0
  8  9  1  0  0  0
  8 29  1  0  0  0
  9 10  2  0  0  0
  9 30  1  0  0  0
 10 11  1  0  0  0
 10 31  1  0  0  0
 11 12  1  0  0  0
 12 13  1  0  0  0
 13 14  1  0  0  0
 13 32  1  0  0  0
 13 33  1  0  0  0
 14 15  1  0  0  0
 14 34  1  0  0  0
 14 35  1  0  0  0
 15 16  1  0  0  0
 15 36  1  0  0  0
 15 37  1  0  0  0
 16 17  1  0  0  0
 17 22  1  0  0  0
 17 18  2  0  0  0
 18 19  1  0  0  0
 18 38  1  0  0  0
 19 20  2  0  0  0
 19 39  1  0  0  0
 20 21  1  0  0  0
 20 40  1  0  0  0
 21 22  2  0  0  0
 21 41  1  0  0  0
 22 23  1  0  0  0
 23 24  1  0  0  0
 23 25  1  0  0  0
 23 26  1  0  0  0
M  CHG  1   3  -1
M  END
> <s_m_source_file>
/home/user-home/yujie/0_PBCNetv2/data/FEP/MCL1/inp_ligprep.csv

> <i_m_source_file_index>
33

> <i_lp_mmshare_version>
51139

> <i_f3d_flags>
0

> <s_epik_input>
W2NIXTFbY0hdW2NIXVtjSF1jKGMxMiljKGMoW25IXTIpQyg9TylbT0hdKVtDSDJdW0NIMl1bQ0gyXU9jM1tjSF1bY0hdW2NIXVtjSF1jM0MoRikoRilG

> <s_epik_cmdline>
J2VwaWtfcHl0aG9uJywgJy1waHQnLCAnMi4wJywgJy1waCcsICc3LjQnLCAnLXRuJywgJzgnLCAnLW1hJywgJzIwMCcsICctaW1hZScsICc8aW5maWxlLm1hZT4nLCAnLW9tYWUnLCAnPG91dGZpbGUubWFlPic=

> <r_lp_tautomer_probability>
1

> <r_epik_Ionization_Penalty>
  0.0005

> <r_epik_Ionization_Penalty_Charging>
  0.0005

> <r_epik_Ionization_Penalty_Neutral>
  0.0000

> <r_epik_State_Penalty>
  0.0003

> <r_epik_Charging_Adjusted_Penalty>
0.000736004

> <i_epik_Tot_Q>
-1

> <i_epik_Tot_abs_Q>
1

> <s_lp_Force_Field>
OPLS3e

> <r_lp_Energy>
31.0324

> <b_lp_Chiralities_Consistent>
1

> <s_lp_Variant>
MCL1_29-1

> <s_i_glide_gridfile>
MCL1-001-gridgen

> <i_i_glide_lignum>
34

> <i_i_glide_rotatable_bonds>
7

> <r_i_docking_score>
-9.6598640148056

> <r_i_glide_ligand_efficiency>
-0.371533231338677

> <r_i_glide_ligand_efficiency_sa>
-1.10066573592816

> <r_i_glide_ligand_efficiency_ln>
-2.26858736727797

> <r_i_glide_gscore>
-9.6601451908056

> <r_i_glide_lipo>
-4.95833173844143

> <r_i_glide_hbond>
-0.2

> <r_i_glide_metal>
-0

> <r_i_glide_rewards>
-2.90483915871304

> <r_i_glide_evdw>
-38.2892646789551

> <r_i_glide_ecoul>
-2.65272903442383

> <r_i_glide_erotb>
0.731300272525245

> <r_i_glide_esite>
-0.01590197706505

> <r_i_glide_emodel>
-67.480769034755

> <r_i_glide_energy>
-40.9419937133789

> <r_i_glide_einternal>
12.4233102798462

> <i_i_glide_confnum>
1

> <i_i_glide_posenum>
205

> <r_i_glide_eff_state_penalty>
0.000281176

$$$$
