MCL1_68
                    3D
 Schrodinger Suite 2020-3.
 43 46  0  0  1  0            999 V2000
   36.6789   -9.4597   19.4333 O   0  0  0  0  0  0
   35.5470   -8.9482   19.5595 C   0  0  0  0  0  0
   34.6416   -9.0197   18.6988 O   0  5  0  0  0  0
   35.2825   -8.2597   20.8234 C   0  0  0  0  0  0
   33.9880   -7.9395   21.1301 O   0  0  0  0  0  0
   34.0010   -7.4597   22.4002 C   0  0  0  0  0  0
   32.8807   -7.0700   23.1427 C   0  0  0  0  0  0
   33.1119   -6.6815   24.4628 C   0  0  0  0  0  0
   34.4026   -6.6774   24.9947 C   0  0  0  0  0  0
   34.6461   -6.2597   26.6333 Cl  0  0  0  0  0  0
   35.5146   -7.0304   24.2357 C   0  0  0  0  0  0
   35.3152   -7.4436   22.9152 C   0  0  0  0  0  0
   36.1597   -7.9024   21.8613 C   0  0  0  0  0  0
   37.6735   -8.0215   21.9159 C   0  0  0  0  0  0
   38.1765   -9.4469   22.2294 C   0  0  0  0  0  0
   37.8691   -9.9679   23.6423 C   0  0  0  0  0  0
   38.2824   -9.0066   24.6100 O   0  0  0  0  0  0
   38.8685   -9.4711   25.7657 C   0  0  0  0  0  0
   40.1744   -9.0580   26.0172 C   0  0  0  0  0  0
   40.8210   -9.3673   27.2062 C   0  0  0  0  0  0
   40.1778  -10.1289   28.1736 C   0  0  0  0  0  0
   38.8694  -10.6165   27.9496 C   0  0  0  0  0  0
   38.2219  -11.4275   28.9117 C   0  0  0  0  0  0
   36.9157  -11.8493   28.7011 C   0  0  0  0  0  0
   36.2213  -11.4597   27.5641 C   0  0  0  0  0  0
   36.8296  -10.6691   26.5978 C   0  0  0  0  0  0
   38.1818  -10.2597   26.7435 C   0  0  0  0  0  0
   31.8868   -7.0969   22.7210 H   0  0  0  0  0  0
   32.2795   -6.3944   25.0897 H   0  0  0  0  0  0
   36.5044   -7.0188   24.6687 H   0  0  0  0  0  0
   38.0996   -7.7036   20.9627 H   0  0  0  0  0  0
   38.0866   -7.3233   22.6451 H   0  0  0  0  0  0
   37.7776  -10.1604   21.5105 H   0  0  0  0  0  0
   39.2471   -9.4597   22.0624 H   0  0  0  0  0  0
   36.7956  -10.1282   23.7223 H   0  0  0  0  0  0
   38.3481  -10.9393   23.7884 H   0  0  0  0  0  0
   40.6790   -8.4468   25.2861 H   0  0  0  0  0  0
   41.8245   -9.0061   27.3799 H   0  0  0  0  0  0
   40.6790  -10.3579   29.1026 H   0  0  0  0  0  0
   38.7436  -11.7089   29.8154 H   0  0  0  0  0  0
   36.4240  -12.4678   29.4344 H   0  0  0  0  0  0
   35.1949  -11.7699   27.4333 H   0  0  0  0  0  0
   36.2527  -10.3624   25.7419 H   0  0  0  0  0  0
  1  2  2  0  0  0
  2  3  1  0  0  0
  2  4  1  0  0  0
  4 13  2  0  0  0
  4  5  1  0  0  0
  5  6  1  0  0  0
  6 12  2  0  0  0
  6  7  1  0  0  0
  7  8  2  0  0  0
  7 28  1  0  0  0
  8  9  1  0  0  0
  8 29  1  0  0  0
  9 10  1  0  0  0
  9 11  2  0  0  0
 11 12  1  0  0  0
 11 30  1  0  0  0
 12 13  1  0  0  0
 13 14  1  0  0  0
 14 15  1  0  0  0
 14 31  1  0  0  0
 14 32  1  0  0  0
 15 16  1  0  0  0
 15 33  1  0  0  0
 15 34  1  0  0  0
 16 17  1  0  0  0
 16 35  1  0  0  0
 16 36  1  0  0  0
 17 18  1  0  0  0
 18 27  1  0  0  0
 18 19  2  0  0  0
 19 20  1  0  0  0
 19 37  1  0  0  0
 20 21  2  0  0  0
 20 38  1  0  0  0
 21 22  1  0  0  0
 21 39  1  0  0  0
 22 27  2  0  0  0
 22 23  1  0  0  0
 23 24  2  0  0  0
 23 40  1  0  0  0
 24 25  1  0  0  0
 24 41  1  0  0  0
 25 26  2  0  0  0
 25 42  1  0  0  0
 26 27  1  0  0  0
 26 43  1  0  0  0
M  CHG  1   3  -1
M  END
> <s_m_source_file>
/home/user-home/yujie/0_PBCNetv2/data/FEP/MCL1/inp_ligprep.csv

> <i_m_source_file_index>
5

> <i_lp_mmshare_version>
51139

> <i_f3d_flags>
0

> <s_epik_input>
W2NIXTFbY0hdYyhDbClbY0hdYyhjMTIpYyhjKG8yKUMoPU8pW09IXSlbQ0gyXVtDSDJdW0NIMl1PYyhbY0hdW2NIXVtjSF0zKWMoYzM0KVtjSF1bY0hdW2NIXVtjSF00

> <s_epik_cmdline>
J2VwaWtfcHl0aG9uJywgJy1waHQnLCAnMi4wJywgJy1waCcsICc3LjQnLCAnLXRuJywgJzgnLCAnLW1hJywgJzIwMCcsICctaW1hZScsICc8aW5maWxlLm1hZT4nLCAnLW9tYWUnLCAnPG91dGZpbGUubWFlPic=

> <r_lp_tautomer_probability>
1

> <r_epik_Ionization_Penalty>
  0.0000

> <r_epik_Ionization_Penalty_Charging>
  0.0000

> <r_epik_Ionization_Penalty_Neutral>
  0.0000

> <r_epik_State_Penalty>
 -0.0000

> <r_epik_Charging_Adjusted_Penalty>
3.92798e-05

> <i_epik_Tot_Q>
-1

> <i_epik_Tot_abs_Q>
1

> <s_lp_Force_Field>
OPLS3e

> <r_lp_Energy>
42.3923

> <b_lp_Chiralities_Consistent>
1

> <s_lp_Variant>
MCL1_68-1

> <s_i_glide_gridfile>
MCL1-001-gridgen

> <i_i_glide_lignum>
6

> <i_i_glide_rotatable_bonds>
6

> <r_i_docking_score>
-10.0368192046674

> <r_i_glide_ligand_efficiency>
-0.37173404461731

> <r_i_glide_ligand_efficiency_sa>
-1.11520213262676

> <r_i_glide_ligand_efficiency_ln>
-2.3364060409498

> <r_i_glide_gscore>
-10.0368192046674

> <r_i_glide_lipo>
-6.01114850749462

> <r_i_glide_hbond>
-0.369104680042798

> <r_i_glide_metal>
-0

> <r_i_glide_rewards>
-1.71945859090909

> <r_i_glide_evdw>
-43.2367668151855

> <r_i_glide_ecoul>
-1.75380957126617

> <r_i_glide_erotb>
0.53775539038866

> <r_i_glide_esite>
-0.0499530401603233

> <r_i_glide_emodel>
-73.9577083182515

> <r_i_glide_energy>
-44.9905763864517

> <r_i_glide_einternal>
12.7534399032593

> <i_i_glide_confnum>
3

> <i_i_glide_posenum>
221

> <r_i_glide_eff_state_penalty>
-0

$$$$
