MCL1_39
                    3D
 Schrodinger Suite 2020-3.
 48 51  0  0  1  0            999 V2000
   32.1256   -9.9373   19.1259 O   0  0  0  0  0  0
   33.2942   -9.5382   19.3410 C   0  0  0  0  0  0
   34.2900   -9.8162   18.6325 O   0  5  0  0  0  0
   33.5196   -8.7061   20.5431 C   0  0  0  0  0  0
   32.4885   -8.6132   21.4509 N   0  0  0  0  0  0
   32.8668   -7.8714   22.5460 C   0  0  0  0  0  0
   32.1734   -7.5434   23.7181 C   0  0  0  0  0  0
   32.8671   -6.8047   24.6770 C   0  0  0  0  0  0
   34.1841   -6.4021   24.4793 C   0  0  0  0  0  0
   34.8616   -6.7089   23.3007 C   0  0  0  0  0  0
   34.2126   -7.4586   22.3048 C   0  0  0  0  0  0
   34.6016   -7.9523   21.0044 C   0  0  0  0  0  0
   35.9184   -7.6965   20.2956 C   0  0  0  0  0  0
   36.9897   -8.7845   20.5158 C   0  0  0  0  0  0
   37.7596   -8.6641   21.8411 C   0  0  0  0  0  0
   37.1176   -9.3574   22.9140 O   0  0  0  0  0  0
   37.8209   -9.4552   24.0999 C   0  0  0  0  0  0
   38.6720   -8.4530   24.5608 C   0  0  0  0  0  0
   39.4853   -8.6588   25.6623 C   0  0  0  0  0  0
   39.2611   -9.7469   26.5075 C   0  0  0  0  0  0
   39.8901   -9.8135   27.8590 C   0  0  0  0  0  0
   39.2204  -10.4322   28.9248 C   0  0  0  0  0  0
   39.6519  -10.2525   30.2296 C   0  0  0  0  0  0
   40.7678   -9.4644   30.4771 C   0  0  0  0  0  0
   41.4818   -8.8928   29.4337 C   0  0  0  0  0  0
   41.0599   -9.0863   28.1271 C   0  0  0  0  0  0
   38.2899  -10.6597   26.1260 C   0  0  0  0  0  0
   37.6668  -10.5834   24.8938 C   0  0  0  0  0  0
   31.6080   -9.0785   21.2783 H   0  0  0  0  0  0
   31.1550   -7.8593   23.8893 H   0  0  0  0  0  0
   32.3723   -6.5430   25.6022 H   0  0  0  0  0  0
   34.6899   -5.8462   25.2553 H   0  0  0  0  0  0
   35.8828   -6.3930   23.1673 H   0  0  0  0  0  0
   35.7264   -7.6096   19.2255 H   0  0  0  0  0  0
   36.3213   -6.7228   20.5713 H   0  0  0  0  0  0
   36.5647   -9.7828   20.4023 H   0  0  0  0  0  0
   37.7197   -8.6835   19.7126 H   0  0  0  0  0  0
   38.7548   -9.0932   21.6999 H   0  0  0  0  0  0
   37.8951   -7.6047   22.0735 H   0  0  0  0  0  0
   38.6787   -7.5027   24.0541 H   0  0  0  0  0  0
   40.1615   -7.8639   25.9398 H   0  0  0  0  0  0
   38.3030  -10.9828   28.7833 H   0  0  0  0  0  0
   39.0959  -10.7011   31.0374 H   0  0  0  0  0  0
   41.0821   -9.2876   31.4922 H   0  0  0  0  0  0
   42.3491   -8.2837   29.6400 H   0  0  0  0  0  0
   41.6157   -8.6059   27.3359 H   0  0  0  0  0  0
   38.0329  -11.4673   26.7773 H   0  0  0  0  0  0
   37.0789  -11.4185   24.5983 H   0  0  0  0  0  0
  1  2  2  0  0  0
  2  3  1  0  0  0
  2  4  1  0  0  0
  4 12  2  0  0  0
  4  5  1  0  0  0
  5 29  1  0  0  0
  5  6  1  0  0  0
  6 11  2  0  0  0
  6  7  1  0  0  0
  7  8  2  0  0  0
  7 30  1  0  0  0
  8  9  1  0  0  0
  8 31  1  0  0  0
  9 10  2  0  0  0
  9 32  1  0  0  0
 10 11  1  0  0  0
 10 33  1  0  0  0
 11 12  1  0  0  0
 12 13  1  0  0  0
 13 14  1  0  0  0
 13 34  1  0  0  0
 13 35  1  0  0  0
 14 15  1  0  0  0
 14 36  1  0  0  0
 14 37  1  0  0  0
 15 16  1  0  0  0
 15 38  1  0  0  0
 15 39  1  0  0  0
 16 17  1  0  0  0
 17 28  1  0  0  0
 17 18  2  0  0  0
 18 19  1  0  0  0
 18 40  1  0  0  0
 19 20  2  0  0  0
 19 41  1  0  0  0
 20 21  1  0  0  0
 20 27  1  0  0  0
 21 26  1  0  0  0
 21 22  2  0  0  0
 22 23  1  0  0  0
 22 42  1  0  0  0
 23 24  2  0  0  0
 23 43  1  0  0  0
 24 25  1  0  0  0
 24 44  1  0  0  0
 25 26  2  0  0  0
 25 45  1  0  0  0
 26 46  1  0  0  0
 27 28  2  0  0  0
 27 47  1  0  0  0
 28 48  1  0  0  0
M  CHG  1   3  -1
M  END
> <s_m_source_file>
/home/user-home/yujie/0_PBCNetv2/data/FEP/MCL1/inp_ligprep.csv

> <i_m_source_file_index>
28

> <i_lp_mmshare_version>
51139

> <i_f3d_flags>
0

> <s_epik_input>
W2NIXTFbY0hdW2NIXVtjSF1jKGMxMiljKGMoW25IXTIpQyg9TylbT0hdKVtDSDJdW0NIMl1bQ0gyXU9jM1tjSF1bY0hdYyhbY0hdW2NIXTMpLWM0W2NIXVtjSF1bY0hdW2NIXVtjSF00

> <s_epik_cmdline>
J2VwaWtfcHl0aG9uJywgJy1waHQnLCAnMi4wJywgJy1waCcsICc3LjQnLCAnLXRuJywgJzgnLCAnLW1hJywgJzIwMCcsICctaW1hZScsICc8aW5maWxlLm1hZT4nLCAnLW9tYWUnLCAnPG91dGZpbGUubWFlPic=

> <r_lp_tautomer_probability>
1

> <r_epik_Ionization_Penalty>
  0.0006

> <r_epik_Ionization_Penalty_Charging>
  0.0006

> <r_epik_Ionization_Penalty_Neutral>
  0.0000

> <r_epik_State_Penalty>
  0.0004

> <r_epik_Charging_Adjusted_Penalty>
0.000921483

> <i_epik_Tot_Q>
-1

> <i_epik_Tot_abs_Q>
1

> <s_lp_Force_Field>
OPLS3e

> <r_lp_Energy>
43.7229

> <b_lp_Chiralities_Consistent>
1

> <s_lp_Variant>
MCL1_39-1

> <s_i_glide_gridfile>
MCL1-001-gridgen

> <i_i_glide_lignum>
29

> <i_i_glide_rotatable_bonds>
7

> <r_i_docking_score>
-8.07836640838391

> <r_i_glide_ligand_efficiency>
-0.288513086013711

> <r_i_glide_ligand_efficiency_sa>
-0.87609565425794

> <r_i_glide_ligand_efficiency_ln>
-1.86472415819936

> <r_i_glide_gscore>
-8.07872165438391

> <r_i_glide_lipo>
-5.39319728816967

> <r_i_glide_hbond>
-0.177900175455475

> <r_i_glide_metal>
-0

> <r_i_glide_rewards>
-1.58517320299568

> <r_i_glide_evdw>
-31.4934959411621

> <r_i_glide_ecoul>
-1.23247218132019

> <r_i_glide_erotb>
0.843599049903382

> <r_i_glide_esite>
-0.00650441341032926

> <r_i_glide_emodel>
-54.5837068414498

> <r_i_glide_energy>
-32.7259681224823

> <r_i_glide_einternal>
7.07541370391846

> <i_i_glide_confnum>
106

> <i_i_glide_posenum>
255

> <r_i_glide_eff_state_penalty>
0.000355246

$$$$
