MCL1_64
                    3D
 Schrodinger Suite 2020-3.
 43 46  0  0  1  0            999 V2000
   36.2800   -9.8596   19.4333 O   0  0  0  0  0  0
   35.3209   -9.0595   19.4407 C   0  0  0  0  0  0
   34.4828   -8.9511   18.5200 O   0  5  0  0  0  0
   35.1710   -8.2609   20.6507 C   0  0  0  0  0  0
   33.5684   -7.6837   21.0352 S   0  0  0  0  0  0
   34.1151   -7.2538   22.6308 C   0  0  0  0  0  0
   33.3086   -6.8377   23.6845 C   0  0  0  0  0  0
   33.9230   -6.6015   24.9021 C   0  0  0  0  0  0
   32.9339   -6.2597   26.2333 Cl  0  0  0  0  0  0
   35.2979   -6.6739   25.0703 C   0  0  0  0  0  0
   36.1098   -7.0498   24.0090 C   0  0  0  0  0  0
   35.5235   -7.4031   22.7799 C   0  0  0  0  0  0
   36.1289   -7.9404   21.6144 C   0  0  0  0  0  0
   37.6162   -8.2259   21.5459 C   0  0  0  0  0  0
   37.9443   -9.6669   21.9923 C   0  0  0  0  0  0
   38.6773   -9.7779   23.3260 C   0  0  0  0  0  0
   37.9018   -9.4992   24.4778 O   0  0  0  0  0  0
   38.5675   -9.6658   25.6783 C   0  0  0  0  0  0
   39.8787   -9.2096   25.8890 C   0  0  0  0  0  0
   40.5434   -9.4460   27.0877 C   0  0  0  0  0  0
   39.9093  -10.1216   28.1237 C   0  0  0  0  0  0
   38.5849  -10.5846   27.9641 C   0  0  0  0  0  0
   37.9256  -11.2826   29.0002 C   0  0  0  0  0  0
   36.6155  -11.7062   28.8241 C   0  0  0  0  0  0
   35.9349  -11.4558   27.6384 C   0  0  0  0  0  0
   36.5582  -10.7846   26.5963 C   0  0  0  0  0  0
   37.8962  -10.3359   26.7340 C   0  0  0  0  0  0
   32.2365   -6.7592   23.5760 H   0  0  0  0  0  0
   35.7370   -6.4620   26.0354 H   0  0  0  0  0  0
   37.1756   -7.1278   24.1568 H   0  0  0  0  0  0
   37.9605   -8.0855   20.5195 H   0  0  0  0  0  0
   38.1986   -7.4927   22.1066 H   0  0  0  0  0  0
   37.0788  -10.3236   21.9943 H   0  0  0  0  0  0
   38.5889  -10.0911   21.2286 H   0  0  0  0  0  0
   39.0772  -10.7916   23.4337 H   0  0  0  0  0  0
   39.4790   -9.0597   23.2764 H   0  0  0  0  0  0
   40.4086   -8.6589   25.1279 H   0  0  0  0  0  0
   41.5544   -9.0881   27.2186 H   0  0  0  0  0  0
   40.4274  -10.2917   29.0563 H   0  0  0  0  0  0
   38.4410  -11.4793   29.9296 H   0  0  0  0  0  0
   36.1121  -12.2377   29.6160 H   0  0  0  0  0  0
   34.9152  -11.7920   27.5233 H   0  0  0  0  0  0
   36.0221  -10.6033   25.6758 H   0  0  0  0  0  0
  1  2  2  0  0  0
  2  3  1  0  0  0
  2  4  1  0  0  0
  4 13  2  0  0  0
  4  5  1  0  0  0
  5  6  1  0  0  0
  6 12  2  0  0  0
  6  7  1  0  0  0
  7  8  2  0  0  0
  7 28  1  0  0  0
  8  9  1  0  0  0
  8 10  1  0  0  0
 10 11  2  0  0  0
 10 29  1  0  0  0
 11 12  1  0  0  0
 11 30  1  0  0  0
 12 13  1  0  0  0
 13 14  1  0  0  0
 14 15  1  0  0  0
 14 31  1  0  0  0
 14 32  1  0  0  0
 15 16  1  0  0  0
 15 33  1  0  0  0
 15 34  1  0  0  0
 16 17  1  0  0  0
 16 35  1  0  0  0
 16 36  1  0  0  0
 17 18  1  0  0  0
 18 27  1  0  0  0
 18 19  2  0  0  0
 19 20  1  0  0  0
 19 37  1  0  0  0
 20 21  2  0  0  0
 20 38  1  0  0  0
 21 22  1  0  0  0
 21 39  1  0  0  0
 22 27  2  0  0  0
 22 23  1  0  0  0
 23 24  2  0  0  0
 23 40  1  0  0  0
 24 25  1  0  0  0
 24 41  1  0  0  0
 25 26  2  0  0  0
 25 42  1  0  0  0
 26 27  1  0  0  0
 26 43  1  0  0  0
M  CHG  1   3  -1
M  END
> <s_m_source_file>
/home/user-home/yujie/0_PBCNetv2/data/FEP/MCL1/inp_ligprep.csv

> <i_m_source_file_index>
11

> <i_lp_mmshare_version>
51139

> <i_f3d_flags>
0

> <s_epik_input>
W2NIXTFjKENsKVtjSF1bY0hdYyhjMTIpYyhjKHMyKUMoPU8pW09IXSlbQ0gyXVtDSDJdW0NIMl1PYyhbY0hdW2NIXVtjSF0zKWMoYzM0KVtjSF1bY0hdW2NIXVtjSF00

> <s_epik_cmdline>
J2VwaWtfcHl0aG9uJywgJy1waHQnLCAnMi4wJywgJy1waCcsICc3LjQnLCAnLXRuJywgJzgnLCAnLW1hJywgJzIwMCcsICctaW1hZScsICc8aW5maWxlLm1hZT4nLCAnLW9tYWUnLCAnPG91dGZpbGUubWFlPic=

> <r_lp_tautomer_probability>
1

> <r_epik_Ionization_Penalty>
  0.0001

> <r_epik_Ionization_Penalty_Charging>
  0.0001

> <r_epik_Ionization_Penalty_Neutral>
  0.0000

> <r_epik_State_Penalty>
 -0.0000

> <r_epik_Charging_Adjusted_Penalty>
9.50954e-05

> <i_epik_Tot_Q>
-1

> <i_epik_Tot_abs_Q>
1

> <s_lp_Force_Field>
OPLS3e

> <r_lp_Energy>
42.3747

> <b_lp_Chiralities_Consistent>
1

> <s_lp_Variant>
MCL1_64-1

> <s_i_glide_gridfile>
MCL1-001-gridgen

> <i_i_glide_lignum>
12

> <i_i_glide_rotatable_bonds>
6

> <r_i_docking_score>
-9.66103795776114

> <r_i_glide_ligand_efficiency>
-0.35781622065782

> <r_i_glide_ligand_efficiency_sa>
-1.07344866079416

> <r_i_glide_ligand_efficiency_ln>
-2.24893036190807

> <r_i_glide_gscore>
-9.66103795776114

> <r_i_glide_lipo>
-6.10318550338374

> <r_i_glide_hbond>
-0.351939223910586

> <r_i_glide_metal>
-0

> <r_i_glide_rewards>
-1.60991359090909

> <r_i_glide_evdw>
-35.7953147888184

> <r_i_glide_ecoul>
-1.60987901687622

> <r_i_glide_erotb>
0.499214537276342

> <r_i_glide_esite>
-0.0639665848617136

> <r_i_glide_emodel>
-69.4630590702809

> <r_i_glide_energy>
-37.4051938056946

> <r_i_glide_einternal>
7.1117091178894

> <i_i_glide_confnum>
1

> <i_i_glide_posenum>
162

> <r_i_glide_eff_state_penalty>
-0

$$$$
