MCL1_40
                    3D
 Schrodinger Suite 2020-3.
 49 52  0  0  1  0            999 V2000
   36.1845   -9.4717   19.4336 O   0  0  0  0  0  0
   35.1424   -8.8525   19.7400 C   0  0  0  0  0  0
   34.1032   -8.8362   19.0414 O   0  5  0  0  0  0
   35.1229   -8.1333   21.0297 C   0  0  0  0  0  0
   33.8920   -7.7631   21.5229 N   0  0  0  0  0  0
   34.0088   -7.2327   22.7865 C   0  0  0  0  0  0
   33.0381   -6.7894   23.6925 C   0  0  0  0  0  0
   33.4890   -6.3507   24.9376 C   0  0  0  0  0  0
   34.8410   -6.3388   25.2658 C   0  0  0  0  0  0
   35.8068   -6.7531   24.3508 C   0  0  0  0  0  0
   35.4029   -7.2186   23.0863 C   0  0  0  0  0  0
   36.1081   -7.7475   21.9425 C   0  0  0  0  0  0
   37.6184   -7.9255   21.8653 C   0  0  0  0  0  0
   38.0566   -9.3944   22.0271 C   0  0  0  0  0  0
   37.4043  -10.1267   23.2022 C   0  0  0  0  0  0
   37.9342   -9.7255   24.4388 O   0  0  0  0  0  0
   37.3267  -10.3084   25.5239 C   0  0  0  0  0  0
   35.9851  -10.2262   25.8412 C   0  0  0  0  0  0
   35.4799  -10.8936   26.9718 C   0  0  0  0  0  0
   36.3595  -11.3560   27.9417 C   0  0  0  0  0  0
   37.7159  -11.2851   27.6753 C   0  0  0  0  0  0
   38.6322  -11.4485   28.6640 O   0  0  0  0  0  0
   39.6266  -10.5032   28.8436 C   0  0  0  0  0  0
   40.3393  -10.6630   30.0022 C   0  0  0  0  0  0
   41.4792   -9.9233   30.2327 C   0  0  0  0  0  0
   41.8345   -8.8812   29.3868 C   0  0  0  0  0  0
   41.0802   -8.6354   28.2538 C   0  0  0  0  0  0
   40.0059   -9.4628   27.9705 C   0  0  0  0  0  0
   38.1275  -10.9752   26.3909 C   0  0  0  0  0  0
   33.0494   -7.9395   20.9932 H   0  0  0  0  0  0
   31.9836   -6.7998   23.4561 H   0  0  0  0  0  0
   32.7713   -6.0106   25.6710 H   0  0  0  0  0  0
   35.1499   -5.9957   26.2438 H   0  0  0  0  0  0
   36.8509   -6.7357   24.6259 H   0  0  0  0  0  0
   38.0052   -7.5333   20.9244 H   0  0  0  0  0  0
   38.1048   -7.3340   22.6410 H   0  0  0  0  0  0
   37.8356   -9.9473   21.1160 H   0  0  0  0  0  0
   39.1312   -9.4495   22.1335 H   0  0  0  0  0  0
   36.3630   -9.8557   23.2451 H   0  0  0  0  0  0
   37.4835  -11.2099   23.0751 H   0  0  0  0  0  0
   35.4298   -9.6079   25.1819 H   0  0  0  0  0  0
   34.4299  -11.0537   27.1326 H   0  0  0  0  0  0
   35.9968  -11.7214   28.8907 H   0  0  0  0  0  0
   40.0625  -11.4581   30.6668 H   0  0  0  0  0  0
   42.0915  -10.2592   31.0330 H   0  0  0  0  0  0
   42.6904   -8.2679   29.6050 H   0  0  0  0  0  0
   41.3381   -7.8236   27.5879 H   0  0  0  0  0  0
   39.4839   -9.1895   27.0713 H   0  0  0  0  0  0
   39.1206  -11.0589   26.0714 H   0  0  0  0  0  0
  1  2  2  0  0  0
  2  3  1  0  0  0
  2  4  1  0  0  0
  4 12  2  0  0  0
  4  5  1  0  0  0
  5 30  1  0  0  0
  5  6  1  0  0  0
  6 11  2  0  0  0
  6  7  1  0  0  0
  7  8  2  0  0  0
  7 31  1  0  0  0
  8  9  1  0  0  0
  8 32  1  0  0  0
  9 10  2  0  0  0
  9 33  1  0  0  0
 10 11  1  0  0  0
 10 34  1  0  0  0
 11 12  1  0  0  0
 12 13  1  0  0  0
 13 14  1  0  0  0
 13 35  1  0  0  0
 13 36  1  0  0  0
 14 15  1  0  0  0
 14 37  1  0  0  0
 14 38  1  0  0  0
 15 16  1  0  0  0
 15 39  1  0  0  0
 15 40  1  0  0  0
 16 17  1  0  0  0
 17 29  1  0  0  0
 17 18  2  0  0  0
 18 19  1  0  0  0
 18 41  1  0  0  0
 19 20  2  0  0  0
 19 42  1  0  0  0
 20 21  1  0  0  0
 20 43  1  0  0  0
 21 22  1  0  0  0
 21 29  2  0  0  0
 22 23  1  0  0  0
 23 28  1  0  0  0
 23 24  2  0  0  0
 24 25  1  0  0  0
 24 44  1  0  0  0
 25 26  2  0  0  0
 25 45  1  0  0  0
 26 27  1  0  0  0
 26 46  1  0  0  0
 27 28  2  0  0  0
 27 47  1  0  0  0
 28 48  1  0  0  0
 29 49  1  0  0  0
M  CHG  1   3  -1
M  END
> <s_m_source_file>
/home/user-home/yujie/0_PBCNetv2/data/FEP/MCL1/inp_ligprep.csv

> <i_m_source_file_index>
42

> <i_lp_mmshare_version>
51139

> <i_f3d_flags>
0

> <s_epik_input>
W2NIXTFbY0hdW2NIXVtjSF1jKGMxMiljKGMoW25IXTIpQyg9TylbT0hdKVtDSDJdW0NIMl1bQ0gyXU9jM1tjSF1bY0hdW2NIXWMoW2NIXTMpT2M0W2NIXVtjSF1bY0hdW2NIXVtjSF00

> <s_epik_cmdline>
J2VwaWtfcHl0aG9uJywgJy1waHQnLCAnMi4wJywgJy1waCcsICc3LjQnLCAnLXRuJywgJzgnLCAnLW1hJywgJzIwMCcsICctaW1hZScsICc8aW5maWxlLm1hZT4nLCAnLW9tYWUnLCAnPG91dGZpbGUubWFlPic=

> <r_lp_tautomer_probability>
1

> <r_epik_Ionization_Penalty>
  0.0006

> <r_epik_Ionization_Penalty_Charging>
  0.0006

> <r_epik_Ionization_Penalty_Neutral>
  0.0000

> <r_epik_State_Penalty>
  0.0004

> <r_epik_Charging_Adjusted_Penalty>
0.000921483

> <i_epik_Tot_Q>
-1

> <i_epik_Tot_abs_Q>
1

> <s_lp_Force_Field>
OPLS3e

> <r_lp_Energy>
45.7281

> <b_lp_Chiralities_Consistent>
1

> <s_lp_Variant>
MCL1_40-1

> <s_i_glide_gridfile>
MCL1-001-gridgen

> <i_i_glide_lignum>
44

> <i_i_glide_rotatable_bonds>
8

> <r_i_docking_score>
-7.03091405762709

> <r_i_glide_ligand_efficiency>
-0.242445312331969

> <r_i_glide_ligand_efficiency_sa>
-0.744868811550103

> <r_i_glide_ligand_efficiency_ln>
-1.60990103059926

> <r_i_glide_gscore>
-7.03126930362709

> <r_i_glide_lipo>
-6.00909735011953

> <r_i_glide_hbond>
-0.2

> <r_i_glide_metal>
-0

> <r_i_glide_rewards>
-0.409189094168078

> <r_i_glide_evdw>
-20.9661407470703

> <r_i_glide_ecoul>
-1.71350574493408

> <r_i_glide_erotb>
0.912416869947118

> <r_i_glide_esite>
-0.0200668301929649

> <r_i_glide_emodel>
-42.6142591715747

> <r_i_glide_energy>
-22.6796464920044

> <r_i_glide_einternal>
3.12175130844116

> <i_i_glide_confnum>
32

> <i_i_glide_posenum>
370

> <r_i_glide_eff_state_penalty>
0.000355246

$$$$
