MCL1_31
                    3D
 Schrodinger Suite 2020-3.
 41 43  0  0  1  0            999 V2000
   35.8800   -9.4595   19.2784 O   0  0  0  0  0  0
   34.9124   -8.7901   19.7085 C   0  0  0  0  0  0
   33.8326   -8.6334   19.0933 O   0  5  0  0  0  0
   35.0372   -8.1805   21.0487 C   0  0  0  0  0  0
   33.8750   -7.7699   21.6614 N   0  0  0  0  0  0
   34.1211   -7.3388   22.9439 C   0  0  0  0  0  0
   33.2535   -6.8959   23.9476 C   0  0  0  0  0  0
   33.8252   -6.5688   25.1780 C   0  0  0  0  0  0
   35.1965   -6.6593   25.3976 C   0  0  0  0  0  0
   36.0614   -7.0689   24.3839 C   0  0  0  0  0  0
   35.5314   -7.4354   23.1336 C   0  0  0  0  0  0
   36.1120   -7.9331   21.9099 C   0  0  0  0  0  0
   37.5910   -8.1833   21.6743 C   0  0  0  0  0  0
   38.0127   -9.6221   22.0302 C   0  0  0  0  0  0
   37.8791   -9.9901   23.5202 C   0  0  0  0  0  0
   38.7523   -9.1665   24.2931 O   0  0  0  0  0  0
   39.0559   -9.5423   25.5866 C   0  0  0  0  0  0
   40.2411   -9.0595   26.1493 C   0  0  0  0  0  0
   40.6204   -9.4236   27.4421 C   0  0  0  0  0  0
   39.7993  -10.2596   28.1982 C   0  0  0  0  0  0
   38.6028  -10.7492   27.6586 C   0  0  0  0  0  0
   37.7266  -11.7034   28.4658 C   0  0  0  0  0  0
   37.1146  -11.0472   29.4333 F   0  0  0  0  0  0
   38.4583  -12.6598   29.0325 F   0  0  0  0  0  0
   36.7836  -12.2593   27.7108 F   0  0  0  0  0  0
   38.2365  -10.3767   26.3587 C   0  0  0  0  0  0
   32.9870   -7.8457   21.1844 H   0  0  0  0  0  0
   32.1877   -6.8227   23.7916 H   0  0  0  0  0  0
   33.1872   -6.2367   25.9855 H   0  0  0  0  0  0
   35.5982   -6.3918   26.3652 H   0  0  0  0  0  0
   37.1233   -7.1252   24.5691 H   0  0  0  0  0  0
   38.1962   -7.4772   22.2451 H   0  0  0  0  0  0
   37.8419   -7.9890   20.6299 H   0  0  0  0  0  0
   39.0482   -9.7730   21.7238 H   0  0  0  0  0  0
   37.4235  -10.3205   21.4334 H   0  0  0  0  0  0
   38.1431  -11.0437   23.6410 H   0  0  0  0  0  0
   36.8470   -9.8798   23.8537 H   0  0  0  0  0  0
   40.8763   -8.4085   25.5707 H   0  0  0  0  0  0
   41.5459   -9.0510   27.8589 H   0  0  0  0  0  0
   40.0985  -10.5383   29.1987 H   0  0  0  0  0  0
   37.3105  -10.7453   25.9449 H   0  0  0  0  0  0
  1  2  2  0  0  0
  2  3  1  0  0  0
  2  4  1  0  0  0
  4 12  2  0  0  0
  4  5  1  0  0  0
  5 27  1  0  0  0
  5  6  1  0  0  0
  6 11  2  0  0  0
  6  7  1  0  0  0
  7  8  2  0  0  0
  7 28  1  0  0  0
  8  9  1  0  0  0
  8 29  1  0  0  0
  9 10  2  0  0  0
  9 30  1  0  0  0
 10 11  1  0  0  0
 10 31  1  0  0  0
 11 12  1  0  0  0
 12 13  1  0  0  0
 13 14  1  0  0  0
 13 32  1  0  0  0
 13 33  1  0  0  0
 14 15  1  0  0  0
 14 34  1  0  0  0
 14 35  1  0  0  0
 15 16  1  0  0  0
 15 36  1  0  0  0
 15 37  1  0  0  0
 16 17  1  0  0  0
 17 26  1  0  0  0
 17 18  2  0  0  0
 18 19  1  0  0  0
 18 38  1  0  0  0
 19 20  2  0  0  0
 19 39  1  0  0  0
 20 21  1  0  0  0
 20 40  1  0  0  0
 21 22  1  0  0  0
 21 26  2  0  0  0
 22 23  1  0  0  0
 22 24  1  0  0  0
 22 25  1  0  0  0
 26 41  1  0  0  0
M  CHG  1   3  -1
M  END
> <s_m_source_file>
/home/user-home/yujie/0_PBCNetv2/data/FEP/MCL1/inp_ligprep.csv

> <i_m_source_file_index>
16

> <i_lp_mmshare_version>
51139

> <i_f3d_flags>
0

> <s_epik_input>
W2NIXTFbY0hdW2NIXVtjSF1jKGMxMiljKGMoW25IXTIpQyg9TylbT0hdKVtDSDJdW0NIMl1bQ0gyXU9jM1tjSF1bY0hdW2NIXWMoQyhGKShGKUYpW2NIXTM=

> <s_epik_cmdline>
J2VwaWtfcHl0aG9uJywgJy1waHQnLCAnMi4wJywgJy1waCcsICc3LjQnLCAnLXRuJywgJzgnLCAnLW1hJywgJzIwMCcsICctaW1hZScsICc8aW5maWxlLm1hZT4nLCAnLW9tYWUnLCAnPG91dGZpbGUubWFlPic=

> <r_lp_tautomer_probability>
1

> <r_epik_Ionization_Penalty>
  0.0005

> <r_epik_Ionization_Penalty_Charging>
  0.0005

> <r_epik_Ionization_Penalty_Neutral>
  0.0000

> <r_epik_State_Penalty>
  0.0003

> <r_epik_Charging_Adjusted_Penalty>
0.000731543

> <i_epik_Tot_Q>
-1

> <i_epik_Tot_abs_Q>
1

> <s_lp_Force_Field>
OPLS3e

> <r_lp_Energy>
34.2722

> <b_lp_Chiralities_Consistent>
1

> <s_lp_Variant>
MCL1_31-1

> <s_i_glide_gridfile>
MCL1-001-gridgen

> <i_i_glide_lignum>
17

> <i_i_glide_rotatable_bonds>
7

> <r_i_docking_score>
-9.94967866693098

> <r_i_glide_ligand_efficiency>
-0.382679948728115

> <r_i_glide_ligand_efficiency_sa>
-1.13368784233415

> <r_i_glide_ligand_efficiency_ln>
-2.33664938737018

> <r_i_glide_gscore>
-9.94995806993098

> <r_i_glide_lipo>
-5.13306442048957

> <r_i_glide_hbond>
-0.2

> <r_i_glide_metal>
-0

> <r_i_glide_rewards>
-2.83957070368746

> <r_i_glide_evdw>
-37.4211006164551

> <r_i_glide_ecoul>
-4.12739849090576

> <r_i_glide_erotb>
0.731300272525245

> <r_i_glide_esite>
-0.0184584138205855

> <r_i_glide_emodel>
-74.879879267112

> <r_i_glide_energy>
-41.5484991073608

> <r_i_glide_einternal>
2.4473283290863

> <i_i_glide_confnum>
57

> <i_i_glide_posenum>
129

> <r_i_glide_eff_state_penalty>
0.000279403

$$$$
