MCL1_58
                    3D
 Schrodinger Suite 2020-3.
 47 49  0  0  1  0            999 V2000
   37.2671  -11.6551   28.2416 C   0  0  0  0  0  0
   38.2392  -10.7731   27.4697 C   0  0  0  0  0  0
   37.9738  -10.4903   26.1263 C   0  0  0  0  0  0
   38.8514   -9.7012   25.3709 C   0  0  0  0  0  0
   38.6790   -9.4057   24.0335 O   0  0  0  0  0  0
   37.7572  -10.1695   23.2613 C   0  0  0  0  0  0
   37.9531   -9.8596   21.7595 C   0  0  0  0  0  0
   37.6581   -8.4152   21.3106 C   0  0  0  0  0  0
   36.2195   -8.0224   21.5840 C   0  0  0  0  0  0
   35.0761   -8.1657   20.7867 C   0  0  0  0  0  0
   34.9364   -8.7458   19.4325 C   0  0  0  0  0  0
   33.9199   -8.5068   18.7449 O   0  0  0  0  0  0
   35.8791   -9.4597   19.0334 O   0  5  0  0  0  0
   33.9617   -7.7062   21.4913 N   0  0  0  0  0  0
   32.5602   -7.6871   21.0516 C   0  0  0  0  0  0
   34.3722   -7.3045   22.7512 C   0  0  0  0  0  0
   33.6402   -6.8378   23.8466 C   0  0  0  0  0  0
   34.3505   -6.5539   25.0049 C   0  0  0  0  0  0
   33.4790   -6.0682   26.3814 Cl  0  0  0  0  0  0
   35.7314   -6.6597   25.0842 C   0  0  0  0  0  0
   36.4644   -7.0933   23.9905 C   0  0  0  0  0  0
   35.7852   -7.4594   22.8171 C   0  0  0  0  0  0
   39.9860   -9.1780   25.9898 C   0  0  0  0  0  0
   40.2792   -9.4597   27.3281 C   0  0  0  0  0  0
   41.5359   -8.8669   27.9498 C   0  0  0  0  0  0
   39.3979  -10.2597   28.0758 C   0  0  0  0  0  0
   39.7223  -10.5888   29.7495 Cl  0  0  0  0  0  0
   36.4984  -12.0855   27.5979 H   0  0  0  0  0  0
   36.7813  -11.0832   29.0327 H   0  0  0  0  0  0
   37.8002  -12.4839   28.7092 H   0  0  0  0  0  0
   37.0806  -10.8934   25.6745 H   0  0  0  0  0  0
   37.9278  -11.2349   23.4331 H   0  0  0  0  0  0
   36.7336   -9.9612   23.5722 H   0  0  0  0  0  0
   38.9813  -10.0885   21.4837 H   0  0  0  0  0  0
   37.3196  -10.5335   21.1838 H   0  0  0  0  0  0
   38.3415   -7.7388   21.8243 H   0  0  0  0  0  0
   37.8983   -8.3032   20.2524 H   0  0  0  0  0  0
   31.8918   -7.3624   21.8465 H   0  0  0  0  0  0
   32.4545   -7.0011   20.2106 H   0  0  0  0  0  0
   32.2607   -8.6898   20.7444 H   0  0  0  0  0  0
   32.5663   -6.7284   23.8283 H   0  0  0  0  0  0
   36.2389   -6.4088   26.0050 H   0  0  0  0  0  0
   37.5385   -7.1795   24.0593 H   0  0  0  0  0  0
   40.6600   -8.5626   25.4118 H   0  0  0  0  0  0
   42.0933   -8.2447   27.2481 H   0  0  0  0  0  0
   41.2759   -8.2527   28.8122 H   0  0  0  0  0  0
   42.1959   -9.6612   28.2987 H   0  0  0  0  0  0
  1  2  1  0  0  0
  1 28  1  0  0  0
  1 29  1  0  0  0
  1 30  1  0  0  0
  2 26  1  0  0  0
  2  3  2  0  0  0
  3  4  1  0  0  0
  3 31  1  0  0  0
  4  5  1  0  0  0
  4 23  2  0  0  0
  5  6  1  0  0  0
  6  7  1  0  0  0
  6 32  1  0  0  0
  6 33  1  0  0  0
  7  8  1  0  0  0
  7 34  1  0  0  0
  7 35  1  0  0  0
  8  9  1  0  0  0
  8 36  1  0  0  0
  8 37  1  0  0  0
  9 22  1  0  0  0
  9 10  2  0  0  0
 10 11  1  0  0  0
 10 14  1  0  0  0
 11 12  2  0  0  0
 11 13  1  0  0  0
 14 15  1  0  0  0
 14 16  1  0  0  0
 15 38  1  0  0  0
 15 39  1  0  0  0
 15 40  1  0  0  0
 16 22  1  0  0  0
 16 17  2  0  0  0
 17 18  1  0  0  0
 17 41  1  0  0  0
 18 19  1  0  0  0
 18 20  2  0  0  0
 20 21  1  0  0  0
 20 42  1  0  0  0
 21 22  2  0  0  0
 21 43  1  0  0  0
 23 24  1  0  0  0
 23 44  1  0  0  0
 24 25  1  0  0  0
 24 26  2  0  0  0
 25 45  1  0  0  0
 25 46  1  0  0  0
 25 47  1  0  0  0
 26 27  1  0  0  0
M  CHG  1  13  -1
M  END
> <s_m_source_file>
/home/user-home/yujie/0_PBCNetv2/data/FEP/MCL1/inp_ligprep.csv

> <i_m_source_file_index>
9

> <i_lp_mmshare_version>
51139

> <i_f3d_flags>
0

> <s_epik_input>
Q2xjMWMoW0NIM10pW2NIXWMoW2NIXWMxW0NIM10pT1tDSDJdW0NIMl1bQ0gyXWMoYyhDKD1PKVtPSF0pbjJbQ0gzXSljKGMyMylbY0hdW2NIXWMoQ2wpW2NIXTM=

> <s_epik_cmdline>
J2VwaWtfcHl0aG9uJywgJy1waHQnLCAnMi4wJywgJy1waCcsICc3LjQnLCAnLXRuJywgJzgnLCAnLW1hJywgJzIwMCcsICctaW1hZScsICc8aW5maWxlLm1hZT4nLCAnLW9tYWUnLCAnPG91dGZpbGUubWFlPic=

> <r_lp_tautomer_probability>
1

> <r_epik_Ionization_Penalty>
  0.0063

> <r_epik_Ionization_Penalty_Charging>
  0.0063

> <r_epik_Ionization_Penalty_Neutral>
  0.0000

> <r_epik_State_Penalty>
  0.0046

> <r_epik_Charging_Adjusted_Penalty>
0.0109433

> <i_epik_Tot_Q>
-1

> <i_epik_Tot_abs_Q>
1

> <s_lp_Force_Field>
OPLS3e

> <r_lp_Energy>
37.0563

> <b_lp_Chiralities_Consistent>
1

> <s_lp_Variant>
MCL1_58-1

> <s_i_glide_gridfile>
MCL1-001-gridgen

> <i_i_glide_lignum>
10

> <i_i_glide_rotatable_bonds>
6

> <r_i_docking_score>
-10.2725433106809

> <r_i_glide_ligand_efficiency>
-0.380464567062254

> <r_i_glide_ligand_efficiency_sa>
-1.14139369993281

> <r_i_glide_ligand_efficiency_ln>
-2.39127872661413

> <r_i_glide_gscore>
-10.2771920006809

> <r_i_glide_lipo>
-6.02126153929018

> <r_i_glide_hbond>
-0.163310378101255

> <r_i_glide_metal>
-0

> <r_i_glide_rewards>
-1.66573967080878

> <r_i_glide_evdw>
-41.9156188964844

> <r_i_glide_ecoul>
-5.94335651397705

> <r_i_glide_erotb>
0.598166599396215

> <r_i_glide_esite>
-0.0377625899560855

> <r_i_glide_emodel>
-83.2501634216712

> <r_i_glide_energy>
-47.8589754104614

> <r_i_glide_einternal>
2.6054060459137

> <i_i_glide_confnum>
51

> <i_i_glide_posenum>
135

> <r_i_glide_eff_state_penalty>
0.00464869

$$$$
