MCL1_44
                    3D
 Schrodinger Suite 2020-3.
 44 47  0  0  1  0            999 V2000
   36.2782   -9.4599   19.4332 O   0  0  0  0  0  0
   35.1344   -9.0200   19.6839 C   0  0  0  0  0  0
   34.1279   -9.2062   18.9621 O   0  5  0  0  0  0
   34.9748   -8.2597   20.9333 C   0  0  0  0  0  0
   33.6980   -8.0031   21.3755 N   0  0  0  0  0  0
   33.7312   -7.4067   22.6143 C   0  0  0  0  0  0
   32.6977   -7.0206   23.4760 C   0  0  0  0  0  0
   33.0692   -6.4694   24.7029 C   0  0  0  0  0  0
   34.4039   -6.2939   25.0533 C   0  0  0  0  0  0
   35.4302   -6.6593   24.1838 C   0  0  0  0  0  0
   35.1107   -7.2346   22.9418 C   0  0  0  0  0  0
   35.8959   -7.7459   21.8427 C   0  0  0  0  0  0
   37.4142   -7.7759   21.7299 C   0  0  0  0  0  0
   38.0251   -9.0109   22.3954 C   0  0  0  0  0  0
   37.8987   -8.9515   23.9202 C   0  0  0  0  0  0
   38.6666  -10.0026   24.4606 O   0  0  0  0  0  0
   39.1122   -9.7841   25.7363 C   0  0  0  0  0  0
   40.2979   -9.0864   25.9351 C   0  0  0  0  0  0
   40.8802   -9.0055   27.1931 C   0  0  0  0  0  0
   40.2791   -9.6095   28.2935 C   0  0  0  0  0  0
   41.0524   -9.4609   29.8335 Cl  0  0  0  0  0  0
   39.0297  -10.2889   28.1363 C   0  0  0  0  0  0
   38.3498  -10.9221   29.2119 C   0  0  0  0  0  0
   37.0930  -11.4901   29.0164 C   0  0  0  0  0  0
   36.4812  -11.4596   27.7733 C   0  0  0  0  0  0
   37.1428  -10.9238   26.6819 C   0  0  0  0  0  0
   38.4219  -10.3328   26.8399 C   0  0  0  0  0  0
   32.8927   -8.2912   20.8364 H   0  0  0  0  0  0
   31.6576   -7.1569   23.2186 H   0  0  0  0  0  0
   32.3014   -6.1717   25.4028 H   0  0  0  0  0  0
   34.6488   -5.8604   26.0126 H   0  0  0  0  0  0
   36.4584   -6.4986   24.4698 H   0  0  0  0  0  0
   37.7247   -7.7395   20.6849 H   0  0  0  0  0  0
   37.8789   -6.9036   22.1815 H   0  0  0  0  0  0
   37.5655   -9.9216   22.0070 H   0  0  0  0  0  0
   39.0793   -9.0638   22.1257 H   0  0  0  0  0  0
   38.2455   -7.9772   24.2770 H   0  0  0  0  0  0
   36.8615   -9.0740   24.2324 H   0  0  0  0  0  0
   40.8092   -8.6596   25.0863 H   0  0  0  0  0  0
   41.8161   -8.4780   27.3112 H   0  0  0  0  0  0
   38.7929  -10.9334   30.1967 H   0  0  0  0  0  0
   36.5645  -11.9464   29.8333 H   0  0  0  0  0  0
   35.4874  -11.8598   27.6481 H   0  0  0  0  0  0
   36.6712  -10.9420   25.7098 H   0  0  0  0  0  0
  1  2  2  0  0  0
  2  3  1  0  0  0
  2  4  1  0  0  0
  4 12  2  0  0  0
  4  5  1  0  0  0
  5 28  1  0  0  0
  5  6  1  0  0  0
  6 11  2  0  0  0
  6  7  1  0  0  0
  7  8  2  0  0  0
  7 29  1  0  0  0
  8  9  1  0  0  0
  8 30  1  0  0  0
  9 10  2  0  0  0
  9 31  1  0  0  0
 10 11  1  0  0  0
 10 32  1  0  0  0
 11 12  1  0  0  0
 12 13  1  0  0  0
 13 14  1  0  0  0
 13 33  1  0  0  0
 13 34  1  0  0  0
 14 15  1  0  0  0
 14 35  1  0  0  0
 14 36  1  0  0  0
 15 16  1  0  0  0
 15 37  1  0  0  0
 15 38  1  0  0  0
 16 17  1  0  0  0
 17 27  1  0  0  0
 17 18  2  0  0  0
 18 19  1  0  0  0
 18 39  1  0  0  0
 19 20  2  0  0  0
 19 40  1  0  0  0
 20 21  1  0  0  0
 20 22  1  0  0  0
 22 27  2  0  0  0
 22 23  1  0  0  0
 23 24  2  0  0  0
 23 41  1  0  0  0
 24 25  1  0  0  0
 24 42  1  0  0  0
 25 26  2  0  0  0
 25 43  1  0  0  0
 26 27  1  0  0  0
 26 44  1  0  0  0
M  CHG  1   3  -1
M  END
> <s_m_source_file>
/home/user-home/yujie/0_PBCNetv2/data/FEP/MCL1/inp_ligprep.csv

> <i_m_source_file_index>
6

> <i_lp_mmshare_version>
51139

> <i_f3d_flags>
0

> <s_epik_input>
W2NIXTFbY0hdW2NIXVtjSF1jKGMxMiljKGMoW25IXTIpQyg9TylbT0hdKVtDSDJdW0NIMl1bQ0gyXU9jKFtjSF1bY0hdYzNDbCljKGMzNClbY0hdW2NIXVtjSF1bY0hdNA==

> <s_epik_cmdline>
J2VwaWtfcHl0aG9uJywgJy1waHQnLCAnMi4wJywgJy1waCcsICc3LjQnLCAnLXRuJywgJzgnLCAnLW1hJywgJzIwMCcsICctaW1hZScsICc8aW5maWxlLm1hZT4nLCAnLW9tYWUnLCAnPG91dGZpbGUubWFlPic=

> <r_epik_Ionization_Penalty>
  0.0005

> <r_epik_Ionization_Penalty_Charging>
  0.0005

> <r_epik_Ionization_Penalty_Neutral>
  0.0000

> <r_epik_State_Penalty>
  0.0003

> <r_epik_Charging_Adjusted_Penalty>
0.000842282

> <i_epik_Tot_Q>
-1

> <i_epik_Tot_abs_Q>
1

> <s_lp_Force_Field>
OPLS3e

> <r_lp_Energy>
41.7222

> <b_lp_Chiralities_Consistent>
1

> <s_lp_Variant>
MCL1_44-1

> <s_i_glide_gridfile>
MCL1-001-gridgen

> <i_i_glide_lignum>
7

> <i_i_glide_rotatable_bonds>
6

> <r_i_docking_score>
-10.1059233892683

> <r_i_glide_ligand_efficiency>
-0.374293458861788

> <r_i_glide_ligand_efficiency_sa>
-1.12288037535175

> <r_i_glide_ligand_efficiency_ln>
-2.35249235585337

> <r_i_glide_gscore>
-10.1062469272683

> <r_i_glide_lipo>
-6.06595896628743

> <r_i_glide_hbond>
-0.205396800523931

> <r_i_glide_metal>
-0

> <r_i_glide_rewards>
-1.72617286363636

> <r_i_glide_evdw>
-44.4476547241211

> <r_i_glide_ecoul>
-2.63206505775452

> <r_i_glide_erotb>
0.540262106106263

> <r_i_glide_esite>
-0.0317879080575757

> <r_i_glide_emodel>
-80.4999302338284

> <r_i_glide_energy>
-47.0797197818756

> <r_i_glide_einternal>
9.64122581481934

> <i_i_glide_confnum>
25

> <i_i_glide_posenum>
34

> <r_i_glide_eff_state_penalty>
0.000323538

$$$$
