MCL1_65
                    3D
 Schrodinger Suite 2020-3.
 43 45  0  0  1  0            999 V2000
   41.6572   -8.8643   28.1585 C   0  0  0  0  0  0
   40.3883   -9.4597   27.5631 C   0  0  0  0  0  0
   40.0696   -9.1821   26.2327 C   0  0  0  0  0  0
   38.9143   -9.7011   25.6514 C   0  0  0  0  0  0
   38.6809   -9.3547   24.3442 O   0  0  0  0  0  0
   37.8239  -10.1624   23.5534 C   0  0  0  0  0  0
   38.0309   -9.7118   22.1040 C   0  0  0  0  0  0
   37.6488   -8.2370   21.8392 C   0  0  0  0  0  0
   36.1506   -7.9790   21.9850 C   0  0  0  0  0  0
   35.1682   -8.2594   21.0242 C   0  0  0  0  0  0
   35.2891   -8.9159   19.7071 C   0  0  0  0  0  0
   36.3792   -9.4598   19.4333 O   0  0  0  0  0  0
   34.3053   -8.9268   18.9353 O   0  5  0  0  0  0
   33.5637   -7.7610   21.5273 S   0  0  0  0  0  0
   34.1610   -7.2980   23.1055 C   0  0  0  0  0  0
   33.4012   -6.8357   24.1923 C   0  0  0  0  0  0
   31.6867   -6.6680   24.0899 Cl  0  0  0  0  0  0
   34.0586   -6.5277   25.3776 C   0  0  0  0  0  0
   35.4345   -6.6598   25.4857 C   0  0  0  0  0  0
   36.1974   -7.1055   24.4088 C   0  0  0  0  0  0
   35.5753   -7.4547   23.1930 C   0  0  0  0  0  0
   38.0629  -10.5093   26.4147 C   0  0  0  0  0  0
   38.3601  -10.7932   27.7482 C   0  0  0  0  0  0
   37.4123  -11.6793   28.5448 C   0  0  0  0  0  0
   39.5234  -10.2602   28.3261 C   0  0  0  0  0  0
   39.8763  -10.5704   29.9886 Cl  0  0  0  0  0  0
   42.2198   -8.2734   27.4341 H   0  0  0  0  0  0
   42.3103   -9.6561   28.5287 H   0  0  0  0  0  0
   41.4095   -8.2227   29.0062 H   0  0  0  0  0  0
   40.7189   -8.5575   25.6368 H   0  0  0  0  0  0
   38.0874  -11.2173   23.6498 H   0  0  0  0  0  0
   36.7828  -10.0507   23.8566 H   0  0  0  0  0  0
   39.0783   -9.8597   21.8322 H   0  0  0  0  0  0
   37.4681  -10.3732   21.4482 H   0  0  0  0  0  0
   38.2332   -7.5788   22.4831 H   0  0  0  0  0  0
   37.9748   -7.9630   20.8342 H   0  0  0  0  0  0
   33.4907   -6.1759   26.2271 H   0  0  0  0  0  0
   35.9103   -6.4092   26.4221 H   0  0  0  0  0  0
   37.2661   -7.2035   24.5260 H   0  0  0  0  0  0
   37.1620  -10.9103   25.9780 H   0  0  0  0  0  0
   36.5421  -11.9891   27.9623 H   0  0  0  0  0  0
   37.9317  -12.5790   28.8823 H   0  0  0  0  0  0
   37.0563  -11.1548   29.4319 H   0  0  0  0  0  0
  1  2  1  0  0  0
  1 27  1  0  0  0
  1 28  1  0  0  0
  1 29  1  0  0  0
  2 25  1  0  0  0
  2  3  2  0  0  0
  3  4  1  0  0  0
  3 30  1  0  0  0
  4  5  1  0  0  0
  4 22  2  0  0  0
  5  6  1  0  0  0
  6  7  1  0  0  0
  6 31  1  0  0  0
  6 32  1  0  0  0
  7  8  1  0  0  0
  7 33  1  0  0  0
  7 34  1  0  0  0
  8  9  1  0  0  0
  8 35  1  0  0  0
  8 36  1  0  0  0
  9 21  1  0  0  0
  9 10  2  0  0  0
 10 11  1  0  0  0
 10 14  1  0  0  0
 11 12  2  0  0  0
 11 13  1  0  0  0
 14 15  1  0  0  0
 15 21  1  0  0  0
 15 16  2  0  0  0
 16 17  1  0  0  0
 16 18  1  0  0  0
 18 19  2  0  0  0
 18 37  1  0  0  0
 19 20  1  0  0  0
 19 38  1  0  0  0
 20 21  2  0  0  0
 20 39  1  0  0  0
 22 23  1  0  0  0
 22 40  1  0  0  0
 23 24  1  0  0  0
 23 25  2  0  0  0
 24 41  1  0  0  0
 24 42  1  0  0  0
 24 43  1  0  0  0
 25 26  1  0  0  0
M  CHG  1  13  -1
M  END
> <s_m_source_file>
/home/user-home/yujie/0_PBCNetv2/data/FEP/MCL1/inp_ligprep.csv

> <i_m_source_file_index>
14

> <i_lp_mmshare_version>
51139

> <i_f3d_flags>
0

> <s_epik_input>
Q2xjMWMoW0NIM10pW2NIXWMoW2NIXWMxW0NIM10pT1tDSDJdW0NIMl1bQ0gyXWMoYyhzMilDKD1PKVtPSF0pYyhjMjMpW2NIXVtjSF1bY0hdYzNDbA==

> <s_epik_cmdline>
J2VwaWtfcHl0aG9uJywgJy1waHQnLCAnMi4wJywgJy1waCcsICc3LjQnLCAnLXRuJywgJzgnLCAnLW1hJywgJzIwMCcsICctaW1hZScsICc8aW5maWxlLm1hZT4nLCAnLW9tYWUnLCAnPG91dGZpbGUubWFlPic=

> <r_lp_tautomer_probability>
1

> <r_epik_Ionization_Penalty>
  0.0001

> <r_epik_Ionization_Penalty_Charging>
  0.0001

> <r_epik_Ionization_Penalty_Neutral>
  0.0000

> <r_epik_State_Penalty>
 -0.0000

> <r_epik_Charging_Adjusted_Penalty>
7.86687e-05

> <i_epik_Tot_Q>
-1

> <i_epik_Tot_abs_Q>
1

> <s_lp_Force_Field>
OPLS3e

> <r_lp_Energy>
28.9105

> <b_lp_Chiralities_Consistent>
1

> <s_lp_Variant>
MCL1_65-1

> <s_i_glide_gridfile>
MCL1-001-gridgen

> <i_i_glide_lignum>
15

> <i_i_glide_rotatable_bonds>
6

> <r_i_docking_score>
-9.79637286858328

> <r_i_glide_ligand_efficiency>
-0.376783571868588

> <r_i_glide_ligand_efficiency_sa>
-1.11621984908893

> <r_i_glide_ligand_efficiency_ln>
-2.30064602366558

> <r_i_glide_gscore>
-9.79637286858328

> <r_i_glide_lipo>
-5.93893053166475

> <r_i_glide_hbond>
-0.216409673893258

> <r_i_glide_metal>
-0

> <r_i_glide_rewards>
-1.48510576352257

> <r_i_glide_evdw>
-46.0307922363281

> <r_i_glide_ecoul>
-2.78301191329956

> <r_i_glide_erotb>
0.590202387595814

> <r_i_glide_esite>
-0.0271378882871812

> <r_i_glide_emodel>
-86.2957024297932

> <r_i_glide_energy>
-48.8138041496277

> <r_i_glide_einternal>
1.95659124851227

> <i_i_glide_confnum>
163

> <i_i_glide_posenum>
378

> <r_i_glide_eff_state_penalty>
-0

$$$$
