MCL1_66
                    3D
 Schrodinger Suite 2020-3.
 43 46  0  0  1  0            999 V2000
   33.2912   -8.9224   19.0662 O   0  0  0  0  0  0
   34.4042   -8.8148   19.6296 C   0  0  0  0  0  0
   35.4787   -9.2155   19.1177 O   0  5  0  0  0  0
   34.4453   -8.2080   20.9890 C   0  0  0  0  0  0
   32.9028   -7.8672   21.7646 S   0  0  0  0  0  0
   33.6943   -7.3889   23.2526 C   0  0  0  0  0  0
   33.0824   -7.0328   24.4668 C   0  0  0  0  0  0
   31.3683   -7.0768   24.6704 Cl  0  0  0  0  0  0
   33.8933   -6.6668   25.5353 C   0  0  0  0  0  0
   35.2747   -6.6584   25.4136 C   0  0  0  0  0  0
   35.8869   -7.0049   24.2130 C   0  0  0  0  0  0
   35.1108   -7.4039   23.1060 C   0  0  0  0  0  0
   35.5316   -7.8643   21.8116 C   0  0  0  0  0  0
   37.0027   -8.0189   21.4593 C   0  0  0  0  0  0
   37.5058   -9.4642   21.6628 C   0  0  0  0  0  0
   38.2811   -9.7104   22.9697 C   0  0  0  0  0  0
   37.5937   -9.4902   24.1946 O   0  0  0  0  0  0
   38.3492   -9.6099   25.3544 C   0  0  0  0  0  0
   39.6609   -9.1269   25.4636 C   0  0  0  0  0  0
   40.4012   -9.2499   26.6326 C   0  0  0  0  0  0
   39.8605   -9.8877   27.7412 C   0  0  0  0  0  0
   38.5469  -10.4197   27.6785 C   0  0  0  0  0  0
   37.9770  -11.1059   28.7776 C   0  0  0  0  0  0
   36.6857  -11.6152   28.6902 C   0  0  0  0  0  0
   35.9356  -11.4596   27.5323 C   0  0  0  0  0  0
   36.4599  -10.7835   26.4388 C   0  0  0  0  0  0
   37.7763  -10.2602   26.4801 C   0  0  0  0  0  0
   33.4424   -6.3926   26.4782 H   0  0  0  0  0  0
   35.8809   -6.3729   26.2622 H   0  0  0  0  0  0
   36.9641   -6.9955   24.1539 H   0  0  0  0  0  0
   37.1507   -7.7365   20.4159 H   0  0  0  0  0  0
   37.6389   -7.3166   21.9982 H   0  0  0  0  0  0
   36.7199  -10.1975   21.4946 H   0  0  0  0  0  0
   38.2111   -9.6594   20.8600 H   0  0  0  0  0  0
   38.6775  -10.7192   23.0334 H   0  0  0  0  0  0
   39.1324   -9.0596   22.8808 H   0  0  0  0  0  0
   40.1510   -8.6597   24.6337 H   0  0  0  0  0  0
   41.4074   -8.8570   26.6724 H   0  0  0  0  0  0
   40.4402   -9.9919   28.6470 H   0  0  0  0  0  0
   38.5495  -11.2320   29.6856 H   0  0  0  0  0  0
   36.2571  -12.1397   29.5297 H   0  0  0  0  0  0
   34.9327  -11.8578   27.4881 H   0  0  0  0  0  0
   35.8677  -10.6637   25.5430 H   0  0  0  0  0  0
  1  2  2  0  0  0
  2  3  1  0  0  0
  2  4  1  0  0  0
  4 13  2  0  0  0
  4  5  1  0  0  0
  5  6  1  0  0  0
  6 12  2  0  0  0
  6  7  1  0  0  0
  7  8  1  0  0  0
  7  9  2  0  0  0
  9 10  1  0  0  0
  9 28  1  0  0  0
 10 11  2  0  0  0
 10 29  1  0  0  0
 11 12  1  0  0  0
 11 30  1  0  0  0
 12 13  1  0  0  0
 13 14  1  0  0  0
 14 15  1  0  0  0
 14 31  1  0  0  0
 14 32  1  0  0  0
 15 16  1  0  0  0
 15 33  1  0  0  0
 15 34  1  0  0  0
 16 17  1  0  0  0
 16 35  1  0  0  0
 16 36  1  0  0  0
 17 18  1  0  0  0
 18 27  1  0  0  0
 18 19  2  0  0  0
 19 20  1  0  0  0
 19 37  1  0  0  0
 20 21  2  0  0  0
 20 38  1  0  0  0
 21 22  1  0  0  0
 21 39  1  0  0  0
 22 27  2  0  0  0
 22 23  1  0  0  0
 23 24  2  0  0  0
 23 40  1  0  0  0
 24 25  1  0  0  0
 24 41  1  0  0  0
 25 26  2  0  0  0
 25 42  1  0  0  0
 26 27  1  0  0  0
 26 43  1  0  0  0
M  CHG  1   3  -1
M  END
> <s_m_source_file>
/home/user-home/yujie/0_PBCNetv2/data/FEP/MCL1/inp_ligprep.csv

> <i_m_source_file_index>
12

> <i_lp_mmshare_version>
51139

> <i_f3d_flags>
0

> <s_epik_input>
Q2xjMVtjSF1bY0hdW2NIXWMoYzEyKWMoYyhzMilDKD1PKVtPSF0pW0NIMl1bQ0gyXVtDSDJdT2MoW2NIXVtjSF1bY0hdMyljKGMzNClbY0hdW2NIXVtjSF1bY0hdNA==

> <s_epik_cmdline>
J2VwaWtfcHl0aG9uJywgJy1waHQnLCAnMi4wJywgJy1waCcsICc3LjQnLCAnLXRuJywgJzgnLCAnLW1hJywgJzIwMCcsICctaW1hZScsICc8aW5maWxlLm1hZT4nLCAnLW9tYWUnLCAnPG91dGZpbGUubWFlPic=

> <r_lp_tautomer_probability>
1

> <r_epik_Ionization_Penalty>
  0.0001

> <r_epik_Ionization_Penalty_Charging>
  0.0001

> <r_epik_Ionization_Penalty_Neutral>
  0.0000

> <r_epik_State_Penalty>
 -0.0000

> <r_epik_Charging_Adjusted_Penalty>
8.22683e-05

> <i_epik_Tot_Q>
-1

> <i_epik_Tot_abs_Q>
1

> <s_lp_Force_Field>
OPLS3e

> <r_lp_Energy>
40.4614

> <b_lp_Chiralities_Consistent>
1

> <s_lp_Variant>
MCL1_66-1

> <s_i_glide_gridfile>
MCL1-001-gridgen

> <i_i_glide_lignum>
13

> <i_i_glide_rotatable_bonds>
6

> <r_i_docking_score>
-9.78301692101791

> <r_i_glide_ligand_efficiency>
-0.3623339600377

> <r_i_glide_ligand_efficiency_sa>
-1.08700187891891

> <r_i_glide_ligand_efficiency_ln>
-2.27732505357387

> <r_i_glide_gscore>
-9.78301692101791

> <r_i_glide_lipo>
-5.94444586776498

> <r_i_glide_hbond>
-0.2

> <r_i_glide_metal>
-0

> <r_i_glide_rewards>
-1.60158025757576

> <r_i_glide_evdw>
-41.0376167297363

> <r_i_glide_ecoul>
-3.13718509674072

> <r_i_glide_erotb>
0.499214537276342

> <r_i_glide_esite>
-0.0137467319555826

> <r_i_glide_emodel>
-80.4860100000722

> <r_i_glide_energy>
-44.1748018264771

> <r_i_glide_einternal>
4.89469814300537

> <i_i_glide_confnum>
1

> <i_i_glide_posenum>
100

> <r_i_glide_eff_state_penalty>
-0

$$$$
