MCL1_47
                    3D
 Schrodinger Suite 2020-3.
 43 46  0  0  1  0            999 V2000
   35.5263   -9.4581   19.0334 O   0  0  0  0  0  0
   34.6069   -8.7889   19.5632 C   0  0  0  0  0  0
   33.4828   -8.6069   19.0408 O   0  5  0  0  0  0
   34.8390   -8.2057   20.9054 C   0  0  0  0  0  0
   33.7281   -7.7730   21.5952 N   0  0  0  0  0  0
   34.0653   -7.3391   22.8564 C   0  0  0  0  0  0
   33.2728   -6.8708   23.9125 C   0  0  0  0  0  0
   33.9302   -6.5457   25.0988 C   0  0  0  0  0  0
   35.3121   -6.6583   25.2267 C   0  0  0  0  0  0
   36.1005   -7.0946   24.1640 C   0  0  0  0  0  0
   35.4819   -7.4597   22.9553 C   0  0  0  0  0  0
   35.9713   -7.9906   21.7040 C   0  0  0  0  0  0
   37.4262   -8.3013   21.4032 C   0  0  0  0  0  0
   37.7967   -9.7599   21.7372 C   0  0  0  0  0  0
   37.6746  -10.1617   23.2168 C   0  0  0  0  0  0
   38.6632   -9.4563   23.9597 O   0  0  0  0  0  0
   38.8439   -9.7539   25.2920 C   0  0  0  0  0  0
   37.9770  -10.5329   26.0693 C   0  0  0  0  0  0
   38.2376  -10.7708   27.4196 C   0  0  0  0  0  0
   39.3881  -10.2172   28.0293 C   0  0  0  0  0  0
   39.5798  -10.3953   29.3681 N   0  0  0  0  0  0
   40.6315   -9.7614   29.9471 C   0  0  0  0  0  0
   41.5439   -8.9804   29.2481 C   0  0  0  0  0  0
   41.3911   -8.8265   27.8742 C   0  0  0  0  0  0
   40.2791   -9.4306   27.2364 C   0  0  0  0  0  0
   39.9858   -9.2099   25.8714 C   0  0  0  0  0  0
   32.8088   -7.8312   21.1779 H   0  0  0  0  0  0
   32.1998   -6.7825   23.8276 H   0  0  0  0  0  0
   33.3535   -6.1939   25.9433 H   0  0  0  0  0  0
   35.7835   -6.3911   26.1630 H   0  0  0  0  0  0
   37.1716   -7.1744   24.2775 H   0  0  0  0  0  0
   37.6420   -8.1076   20.3523 H   0  0  0  0  0  0
   38.0853   -7.6302   21.9574 H   0  0  0  0  0  0
   37.1795  -10.4215   21.1304 H   0  0  0  0  0  0
   38.8298   -9.9264   21.4327 H   0  0  0  0  0  0
   36.6790   -9.9421   23.6013 H   0  0  0  0  0  0
   37.8354  -11.2365   23.3211 H   0  0  0  0  0  0
   37.0833  -10.9585   25.6386 H   0  0  0  0  0  0
   37.5546  -11.3609   28.0130 H   0  0  0  0  0  0
   40.7314   -9.8603   31.0171 H   0  0  0  0  0  0
   42.3523   -8.4872   29.7656 H   0  0  0  0  0  0
   42.0743   -8.2158   27.3025 H   0  0  0  0  0  0
   40.6541   -8.6034   25.2787 H   0  0  0  0  0  0
  1  2  2  0  0  0
  2  3  1  0  0  0
  2  4  1  0  0  0
  4 12  2  0  0  0
  4  5  1  0  0  0
  5 27  1  0  0  0
  5  6  1  0  0  0
  6 11  2  0  0  0
  6  7  1  0  0  0
  7  8  2  0  0  0
  7 28  1  0  0  0
  8  9  1  0  0  0
  8 29  1  0  0  0
  9 10  2  0  0  0
  9 30  1  0  0  0
 10 11  1  0  0  0
 10 31  1  0  0  0
 11 12  1  0  0  0
 12 13  1  0  0  0
 13 14  1  0  0  0
 13 32  1  0  0  0
 13 33  1  0  0  0
 14 15  1  0  0  0
 14 34  1  0  0  0
 14 35  1  0  0  0
 15 16  1  0  0  0
 15 36  1  0  0  0
 15 37  1  0  0  0
 16 17  1  0  0  0
 17 26  1  0  0  0
 17 18  2  0  0  0
 18 19  1  0  0  0
 18 38  1  0  0  0
 19 20  2  0  0  0
 19 39  1  0  0  0
 20 25  1  0  0  0
 20 21  1  0  0  0
 21 22  2  0  0  0
 22 23  1  0  0  0
 22 40  1  0  0  0
 23 24  2  0  0  0
 23 41  1  0  0  0
 24 25  1  0  0  0
 24 42  1  0  0  0
 25 26  2  0  0  0
 26 43  1  0  0  0
M  CHG  1   3  -1
M  END
> <s_m_source_file>
/home/user-home/yujie/0_PBCNetv2/data/FEP/MCL1/inp_ligprep.csv

> <i_m_source_file_index>
40

> <i_lp_mmshare_version>
51139

> <i_f3d_flags>
0

> <s_epik_input>
W2NIXTFbY0hdW2NIXVtjSF1jKGMxMiljKGMoW25IXTIpQyg9TylbT0hdKVtDSDJdW0NIMl1bQ0gyXU9jKFtjSF1bY0hdMylbY0hdYyhjMzQpW2NIXVtjSF1bY0hdbjQ=

> <s_epik_cmdline>
J2VwaWtfcHl0aG9uJywgJy1waHQnLCAnMi4wJywgJy1waCcsICc3LjQnLCAnLXRuJywgJzgnLCAnLW1hJywgJzIwMCcsICctaW1hZScsICc8aW5maWxlLm1hZT4nLCAnLW9tYWUnLCAnPG91dGZpbGUubWFlPic=

> <r_lp_tautomer_probability>
1

> <r_epik_Ionization_Penalty>
  0.0019

> <r_epik_Ionization_Penalty_Charging>
  0.0006

> <r_epik_Ionization_Penalty_Neutral>
  0.0013

> <r_epik_State_Penalty>
 -0.0000

> <r_epik_Charging_Adjusted_Penalty>
0.000566237

> <i_epik_Tot_Q>
-1

> <i_epik_Tot_abs_Q>
1

> <s_lp_Force_Field>
OPLS3e

> <r_lp_Energy>
41.1949

> <b_lp_Chiralities_Consistent>
1

> <s_lp_Variant>
MCL1_47-1

> <s_i_glide_gridfile>
MCL1-001-gridgen

> <i_i_glide_lignum>
41

> <i_i_glide_rotatable_bonds>
6

> <r_i_docking_score>
-10.0721999687229

> <r_i_glide_ligand_efficiency>
-0.387392306489341

> <r_i_glide_ligand_efficiency_sa>
-1.14764818365955

> <r_i_glide_ligand_efficiency_ln>
-2.36542311307082

> <r_i_glide_gscore>
-10.0721999687229

> <r_i_glide_lipo>
-5.62044987395674

> <r_i_glide_hbond>
-0.2

> <r_i_glide_metal>
-0

> <r_i_glide_rewards>
-1.95041573975267

> <r_i_glide_evdw>
-42.8825607299805

> <r_i_glide_ecoul>
-5.14751291275024

> <r_i_glide_erotb>
0.637114732374426

> <r_i_glide_esite>
-0.0221941139763265

> <r_i_glide_emodel>
-82.4927289005739

> <r_i_glide_energy>
-48.0300736427307

> <r_i_glide_einternal>
6.97868824005127

> <i_i_glide_confnum>
14

> <i_i_glide_posenum>
21

> <r_i_glide_eff_state_penalty>
-0

$$$$
