MCL1_67
                    3D
 Schrodinger Suite 2020-3.
 43 45  0  0  1  0            999 V2000
   37.2634  -11.6080   28.3356 C   0  0  0  0  0  0
   38.2550  -10.7380   27.5735 C   0  0  0  0  0  0
   37.9832  -10.4188   26.2397 C   0  0  0  0  0  0
   38.8698   -9.6240   25.5002 C   0  0  0  0  0  0
   38.6791   -9.2714   24.1838 O   0  0  0  0  0  0
   37.8226  -10.0669   23.3721 C   0  0  0  0  0  0
   37.9929   -9.6138   21.9125 C   0  0  0  0  0  0
   37.6015   -8.1499   21.6327 C   0  0  0  0  0  0
   36.1331   -7.8888   21.9066 C   0  0  0  0  0  0
   35.0214   -8.1329   21.0761 C   0  0  0  0  0  0
   34.9168   -8.7528   19.7396 C   0  0  0  0  0  0
   35.8750   -9.4576   19.3417 O   0  0  0  0  0  0
   33.8623   -8.5585   19.0922 O   0  5  0  0  0  0
   33.8617   -7.7573   21.7036 O   0  0  0  0  0  0
   34.1982   -7.3421   22.9550 C   0  0  0  0  0  0
   33.3082   -6.9356   23.9584 C   0  0  0  0  0  0
   33.8613   -6.5885   25.1921 C   0  0  0  0  0  0
   35.2396   -6.6380   25.4057 C   0  0  0  0  0  0
   36.1188   -7.0281   24.3925 C   0  0  0  0  0  0
   35.5936   -7.4025   23.1436 C   0  0  0  0  0  0
   40.0215   -9.1389   26.1168 C   0  0  0  0  0  0
   40.3196   -9.4595   27.4444 C   0  0  0  0  0  0
   41.5978   -8.9131   28.0659 C   0  0  0  0  0  0
   39.4285  -10.2601   28.1790 C   0  0  0  0  0  0
   39.7686  -10.6483   29.8336 Cl  0  0  0  0  0  0
   36.4034  -11.8864   27.7262 H   0  0  0  0  0  0
   36.8946  -11.0801   29.2148 H   0  0  0  0  0  0
   37.7469  -12.5230   28.6782 H   0  0  0  0  0  0
   37.0774  -10.7900   25.7854 H   0  0  0  0  0  0
   38.1018  -11.1197   23.4523 H   0  0  0  0  0  0
   36.7831   -9.9823   23.6922 H   0  0  0  0  0  0
   39.0310   -9.7635   21.6193 H   0  0  0  0  0  0
   37.4040  -10.2654   21.2700 H   0  0  0  0  0  0
   38.2292   -7.4820   22.2257 H   0  0  0  0  0  0
   37.8389   -7.9098   20.5948 H   0  0  0  0  0  0
   32.2423   -6.9106   23.7885 H   0  0  0  0  0  0
   33.2128   -6.2765   25.9993 H   0  0  0  0  0  0
   35.6350   -6.3581   26.3731 H   0  0  0  0  0  0
   37.1830   -7.0608   24.5754 H   0  0  0  0  0  0
   40.6910   -8.5128   25.5444 H   0  0  0  0  0  0
   42.1721   -8.3051   27.3660 H   0  0  0  0  0  0
   41.3613   -8.2958   28.9336 H   0  0  0  0  0  0
   42.2355   -9.7293   28.4062 H   0  0  0  0  0  0
  1  2  1  0  0  0
  1 26  1  0  0  0
  1 27  1  0  0  0
  1 28  1  0  0  0
  2 24  1  0  0  0
  2  3  2  0  0  0
  3  4  1  0  0  0
  3 29  1  0  0  0
  4  5  1  0  0  0
  4 21  2  0  0  0
  5  6  1  0  0  0
  6  7  1  0  0  0
  6 30  1  0  0  0
  6 31  1  0  0  0
  7  8  1  0  0  0
  7 32  1  0  0  0
  7 33  1  0  0  0
  8  9  1  0  0  0
  8 34  1  0  0  0
  8 35  1  0  0  0
  9 20  1  0  0  0
  9 10  2  0  0  0
 10 11  1  0  0  0
 10 14  1  0  0  0
 11 12  2  0  0  0
 11 13  1  0  0  0
 14 15  1  0  0  0
 15 20  1  0  0  0
 15 16  2  0  0  0
 16 17  1  0  0  0
 16 36  1  0  0  0
 17 18  2  0  0  0
 17 37  1  0  0  0
 18 19  1  0  0  0
 18 38  1  0  0  0
 19 20  2  0  0  0
 19 39  1  0  0  0
 21 22  1  0  0  0
 21 40  1  0  0  0
 22 23  1  0  0  0
 22 24  2  0  0  0
 23 41  1  0  0  0
 23 42  1  0  0  0
 23 43  1  0  0  0
 24 25  1  0  0  0
M  CHG  1  13  -1
M  END
> <s_m_source_file>
/home/user-home/yujie/0_PBCNetv2/data/FEP/MCL1/inp_ligprep.csv

> <i_m_source_file_index>
30

> <i_lp_mmshare_version>
51139

> <i_f3d_flags>
0

> <s_epik_input>
Q2xjMWMoW0NIM10pW2NIXWMoW2NIXWMxW0NIM10pT1tDSDJdW0NIMl1bQ0gyXWMoYyhvMilDKD1PKVtPSF0pYyhjMjMpW2NIXVtjSF1bY0hdW2NIXTM=

> <s_epik_cmdline>
J2VwaWtfcHl0aG9uJywgJy1waHQnLCAnMi4wJywgJy1waCcsICc3LjQnLCAnLXRuJywgJzgnLCAnLW1hJywgJzIwMCcsICctaW1hZScsICc8aW5maWxlLm1hZT4nLCAnLW9tYWUnLCAnPG91dGZpbGUubWFlPic=

> <r_lp_tautomer_probability>
1

> <r_epik_Ionization_Penalty>
  0.0001

> <r_epik_Ionization_Penalty_Charging>
  0.0001

> <r_epik_Ionization_Penalty_Neutral>
  0.0000

> <r_epik_State_Penalty>
 -0.0000

> <r_epik_Charging_Adjusted_Penalty>
9.05897e-05

> <i_epik_Tot_Q>
-1

> <i_epik_Tot_abs_Q>
1

> <s_lp_Force_Field>
OPLS3e

> <r_lp_Energy>
31.8154

> <b_lp_Chiralities_Consistent>
1

> <s_lp_Variant>
MCL1_67-1

> <s_i_glide_gridfile>
MCL1-001-gridgen

> <i_i_glide_lignum>
31

> <i_i_glide_rotatable_bonds>
6

> <r_i_docking_score>
-9.79019423679603

> <r_i_glide_ligand_efficiency>
-0.391607769471841

> <r_i_glide_ligand_efficiency_sa>
-1.14506806312903

> <r_i_glide_ligand_efficiency_ln>
-2.32056942256694

> <r_i_glide_gscore>
-9.79019423679603

> <r_i_glide_lipo>
-5.74356454848979

> <r_i_glide_hbond>
-0.2

> <r_i_glide_metal>
-0

> <r_i_glide_rewards>
-1.82943077844938

> <r_i_glide_evdw>
-44.0646514892578

> <r_i_glide_ecoul>
-3.64624643325806

> <r_i_glide_erotb>
0.747832527906829

> <r_i_glide_esite>
-0.0148618983120895

> <r_i_glide_emodel>
-83.5371182122015

> <r_i_glide_energy>
-47.7108979225159

> <r_i_glide_einternal>
1.96108829975128

> <i_i_glide_confnum>
225

> <i_i_glide_posenum>
394

> <r_i_glide_eff_state_penalty>
-0

$$$$
