MCL1_53
                    3D
 Schrodinger Suite 2020-3.
 44 46  0  0  1  0            999 V2000
   41.5339   -8.8665   27.9746 C   0  0  0  0  0  0
   40.2790   -9.4597   27.3489 C   0  0  0  0  0  0
   39.9885   -9.1764   26.0106 C   0  0  0  0  0  0
   38.8551   -9.6997   25.3897 C   0  0  0  0  0  0
   38.6790   -9.3915   24.0571 O   0  0  0  0  0  0
   37.8036  -10.1814   23.2612 C   0  0  0  0  0  0
   38.0450   -9.8597   21.7691 C   0  0  0  0  0  0
   37.7725   -8.4111   21.3263 C   0  0  0  0  0  0
   36.3405   -8.0077   21.5977 C   0  0  0  0  0  0
   35.2046   -8.1526   20.8006 C   0  0  0  0  0  0
   34.9718   -8.7290   19.4769 C   0  0  0  0  0  0
   33.8859   -8.4907   18.9007 O   0  0  0  0  0  0
   35.8790   -9.4597   19.0333 O   0  5  0  0  0  0
   34.1074   -7.6835   21.4773 N   0  0  0  0  0  0
   34.4678   -7.2941   22.7410 C   0  0  0  0  0  0
   33.6983   -6.8426   23.8080 C   0  0  0  0  0  0
   34.3813   -6.5669   24.9861 C   0  0  0  0  0  0
   33.4790   -6.1118   26.3506 Cl  0  0  0  0  0  0
   35.7622   -6.6597   25.0982 C   0  0  0  0  0  0
   36.5292   -7.0838   24.0226 C   0  0  0  0  0  0
   35.8816   -7.4508   22.8326 C   0  0  0  0  0  0
   37.9787  -10.4948   26.1385 C   0  0  0  0  0  0
   38.2407  -10.7778   27.4827 C   0  0  0  0  0  0
   37.2697  -11.6645   28.2502 C   0  0  0  0  0  0
   39.3954  -10.2597   28.0937 C   0  0  0  0  0  0
   39.7144  -10.5879   29.7683 Cl  0  0  0  0  0  0
   33.1875   -7.7051   21.0584 H   0  0  0  0  0  0
   42.0925   -8.2432   27.2745 H   0  0  0  0  0  0
   42.1935   -9.6597   28.3272 H   0  0  0  0  0  0
   41.2700   -8.2514   28.8358 H   0  0  0  0  0  0
   40.6605   -8.5582   25.4333 H   0  0  0  0  0  0
   37.9951  -11.2427   23.4333 H   0  0  0  0  0  0
   36.7661   -9.9975   23.5402 H   0  0  0  0  0  0
   39.0790  -10.0928   21.5199 H   0  0  0  0  0  0
   37.4231  -10.5235   21.1703 H   0  0  0  0  0  0
   38.4618   -7.7452   21.8444 H   0  0  0  0  0  0
   38.0114   -8.3022   20.2671 H   0  0  0  0  0  0
   32.6244   -6.7467   23.7450 H   0  0  0  0  0  0
   36.2436   -6.4130   26.0340 H   0  0  0  0  0  0
   37.6019   -7.1599   24.1170 H   0  0  0  0  0  0
   37.0884  -10.8984   25.6806 H   0  0  0  0  0  0
   36.5111  -12.1054   27.6020 H   0  0  0  0  0  0
   37.8044  -12.4862   28.7284 H   0  0  0  0  0  0
   36.7721  -11.0922   29.0334 H   0  0  0  0  0  0
  1  2  1  0  0  0
  1 28  1  0  0  0
  1 29  1  0  0  0
  1 30  1  0  0  0
  2 25  1  0  0  0
  2  3  2  0  0  0
  3  4  1  0  0  0
  3 31  1  0  0  0
  4  5  1  0  0  0
  4 22  2  0  0  0
  5  6  1  0  0  0
  6  7  1  0  0  0
  6 32  1  0  0  0
  6 33  1  0  0  0
  7  8  1  0  0  0
  7 34  1  0  0  0
  7 35  1  0  0  0
  8  9  1  0  0  0
  8 36  1  0  0  0
  8 37  1  0  0  0
  9 21  1  0  0  0
  9 10  2  0  0  0
 10 11  1  0  0  0
 10 14  1  0  0  0
 11 12  2  0  0  0
 11 13  1  0  0  0
 14 27  1  0  0  0
 14 15  1  0  0  0
 15 21  1  0  0  0
 15 16  2  0  0  0
 16 17  1  0  0  0
 16 38  1  0  0  0
 17 18  1  0  0  0
 17 19  2  0  0  0
 19 20  1  0  0  0
 19 39  1  0  0  0
 20 21  2  0  0  0
 20 40  1  0  0  0
 22 23  1  0  0  0
 22 41  1  0  0  0
 23 24  1  0  0  0
 23 25  2  0  0  0
 24 42  1  0  0  0
 24 43  1  0  0  0
 24 44  1  0  0  0
 25 26  1  0  0  0
M  CHG  1  13  -1
M  END
> <s_m_source_file>
/home/user-home/yujie/0_PBCNetv2/data/FEP/MCL1/inp_ligprep.csv

> <i_m_source_file_index>
21

> <i_lp_mmshare_version>
51139

> <i_f3d_flags>
0

> <s_epik_input>
Q2xjMWMoW0NIM10pW2NIXWMoW2NIXWMxW0NIM10pT1tDSDJdW0NIMl1bQ0gyXWMoYyhbbkhdMilDKD1PKVtPSF0pYyhjMjMpW2NIXVtjSF1jKENsKVtjSF0z

> <s_epik_cmdline>
J2VwaWtfcHl0aG9uJywgJy1waHQnLCAnMi4wJywgJy1waCcsICc3LjQnLCAnLXRuJywgJzgnLCAnLW1hJywgJzIwMCcsICctaW1hZScsICc8aW5maWxlLm1hZT4nLCAnLW9tYWUnLCAnPG91dGZpbGUubWFlPic=

> <r_lp_tautomer_probability>
1

> <r_epik_Ionization_Penalty>
  0.0003

> <r_epik_Ionization_Penalty_Charging>
  0.0003

> <r_epik_Ionization_Penalty_Neutral>
  0.0000

> <r_epik_State_Penalty>
 -0.0000

> <r_epik_Charging_Adjusted_Penalty>
0.000270667

> <i_epik_Tot_Q>
-1

> <i_epik_Tot_abs_Q>
1

> <s_lp_Force_Field>
OPLS3e

> <r_lp_Energy>
28.1682

> <b_lp_Chiralities_Consistent>
1

> <s_lp_Variant>
MCL1_53-1

> <s_i_glide_gridfile>
MCL1-001-gridgen

> <i_i_glide_lignum>
22

> <i_i_glide_rotatable_bonds>
6

> <r_i_docking_score>
-10.2247847950221

> <r_i_glide_ligand_efficiency>
-0.393260953654695

> <r_i_glide_ligand_efficiency_sa>
-1.1650340277949

> <r_i_glide_ligand_efficiency_ln>
-2.40125715885554

> <r_i_glide_gscore>
-10.2247847950221

> <r_i_glide_lipo>
-6.03867351964475

> <r_i_glide_hbond>
-0.163243364202782

> <r_i_glide_metal>
-0

> <r_i_glide_rewards>
-1.6194963380717

> <r_i_glide_evdw>
-42.1225967407227

> <r_i_glide_ecoul>
-6.00012111663818

> <r_i_glide_erotb>
0.637301348502223

> <r_i_glide_esite>
-0.0345249170732145

> <r_i_glide_emodel>
-80.8284128899715

> <r_i_glide_energy>
-48.1227178573608

> <r_i_glide_einternal>
7.45652103424072

> <i_i_glide_confnum>
104

> <i_i_glide_posenum>
260

> <r_i_glide_eff_state_penalty>
-0

$$$$
